version 3
run Static-0-20260507-22:35:05-8340
attr configname Static
attr datetime 20260507-22:35:05
attr datetimef 20260507-223505
attr experiment Static
attr inifile omnetpp.ini
attr iterationvars ""
attr iterationvarsd ""
attr iterationvarsf ""
attr measurement ""
attr network CampusNetwork
attr processid 8340
attr repetition 0
attr replication #0
attr resultdir results
attr runnumber 0
attr seedset 0
config image-path ../inet4.5/images
config description "Static Routing"
config extends General
config *.coreRouter.typename StaticRouter
config *.seRouter.typename StaticRouter
config *.eeRouter.typename StaticRouter
config *.bbaRouter.typename StaticRouter
config *.adminRouter.typename StaticRouter
config *.coreRouter.numPorts 6
config *.seRouter.numPorts 4
config *.eeRouter.numPorts 4
config *.bbaRouter.numPorts 4
config *.adminRouter.numPorts 4
config *.coreRouter.ipAddress "\"10.0.10.1\""
config *.seRouter.ipAddress "\"10.0.10.2\""
config *.eeRouter.ipAddress "\"10.0.10.6\""
config *.bbaRouter.ipAddress "\"10.0.10.10\""
config *.adminRouter.ipAddress "\"10.0.10.14\""
config *.coreRouter.routeTable "\"10.0.1.0/255.255.255.0:0;10.0.2.0/255.255.255.0:1;10.0.3.0/255.255.255.0:2;10.0.4.0/255.255.255.0:3;10.0.6.0/255.255.255.0:5\""
config *.seRouter.routeTable "\"0.0.0.0/0.0.0.0:0;10.0.6.0/255.255.255.0:0\""
config *.eeRouter.routeTable "\"0.0.0.0/0.0.0.0:0;10.0.6.0/255.255.255.0:0\""
config *.bbaRouter.routeTable "\"0.0.0.0/0.0.0.0:0;10.0.6.0/255.255.255.0:0\""
config *.adminRouter.routeTable "\"0.0.0.0/0.0.0.0:0;10.0.6.0/255.255.255.0:0\""
config network CampusNetwork
config sim-time-limit 180s
config record-eventlog false
config debug-on-errors false
config **.vector-recording false
config **.scalar-recording true
config **.app[0].sendInterval 0.05s
config *.scenarioManager.script "xml(\"<script><at t='60.0'><set-param submodule='coreRouter.ethg[0].channel' name='disabled' value='true'/><set-param submodule='seRouter.ethg[0].channel' name='disabled' value='true'/></at><at t='120.0'><set-param submodule='coreRouter.ethg[0].channel' name='disabled' value='false'/><set-param submodule='seRouter.ethg[0].channel' name='disabled' value='false'/></at></script>\")"
config **.seHost*.app[0].typename TrafficGenerator
config **.eeHost*.app[0].typename TrafficGenerator
config **.bbaHost*.app[0].typename TrafficGenerator
config **.adminHost*.app[0].typename TrafficGenerator
config *.appServer.app[0].typename UdpSink
config *.appServer.app[0].localPort 1234
config **.app[0].trafficProfile "\"CBR\""
config **.app[0].destAddress "\"10.0.6.1\""
config **.app[0].destPort 1234
config **.app[0].startTime 1s
config **.app[0].stopTime 175s
config **.app[0].packetSize 512

par CampusNetwork.coreRouter.ethg$o[0].channel typename "\"ned.DatarateChannel\""
par CampusNetwork.coreRouter.ethg$o[0].channel disabled false
attr mutable ""
par CampusNetwork.coreRouter.ethg$o[0].channel delay 0.002s
attr mutable ""
attr unit s
par CampusNetwork.coreRouter.ethg$o[0].channel datarate 1e+08bps
attr mutable ""
attr unit bps
par CampusNetwork.coreRouter.ethg$o[0].channel ber 0
attr mutable ""
par CampusNetwork.coreRouter.ethg$o[0].channel per 0
attr mutable ""
par CampusNetwork.seRouter.ethg$o[0].channel typename "\"ned.DatarateChannel\""
par CampusNetwork.seRouter.ethg$o[0].channel disabled false
attr mutable ""
par CampusNetwork.seRouter.ethg$o[0].channel delay 0.002s
attr mutable ""
attr unit s
par CampusNetwork.seRouter.ethg$o[0].channel datarate 1e+08bps
attr mutable ""
attr unit bps
par CampusNetwork.seRouter.ethg$o[0].channel ber 0
attr mutable ""
par CampusNetwork.seRouter.ethg$o[0].channel per 0
attr mutable ""
par CampusNetwork.coreRouter.ethg$o[1].channel typename "\"ned.DatarateChannel\""
par CampusNetwork.coreRouter.ethg$o[1].channel disabled false
attr mutable ""
par CampusNetwork.coreRouter.ethg$o[1].channel delay 0.002s
attr mutable ""
attr unit s
par CampusNetwork.coreRouter.ethg$o[1].channel datarate 1e+08bps
attr mutable ""
attr unit bps
par CampusNetwork.coreRouter.ethg$o[1].channel ber 0
attr mutable ""
par CampusNetwork.coreRouter.ethg$o[1].channel per 0
attr mutable ""
par CampusNetwork.eeRouter.ethg$o[0].channel typename "\"ned.DatarateChannel\""
par CampusNetwork.eeRouter.ethg$o[0].channel disabled false
attr mutable ""
par CampusNetwork.eeRouter.ethg$o[0].channel delay 0.002s
attr mutable ""
attr unit s
par CampusNetwork.eeRouter.ethg$o[0].channel datarate 1e+08bps
attr mutable ""
attr unit bps
par CampusNetwork.eeRouter.ethg$o[0].channel ber 0
attr mutable ""
par CampusNetwork.eeRouter.ethg$o[0].channel per 0
attr mutable ""
par CampusNetwork.coreRouter.ethg$o[2].channel typename "\"ned.DatarateChannel\""
par CampusNetwork.coreRouter.ethg$o[2].channel disabled false
attr mutable ""
par CampusNetwork.coreRouter.ethg$o[2].channel delay 0.002s
attr mutable ""
attr unit s
par CampusNetwork.coreRouter.ethg$o[2].channel datarate 1e+08bps
attr mutable ""
attr unit bps
par CampusNetwork.coreRouter.ethg$o[2].channel ber 0
attr mutable ""
par CampusNetwork.coreRouter.ethg$o[2].channel per 0
attr mutable ""
par CampusNetwork.bbaRouter.ethg$o[0].channel typename "\"ned.DatarateChannel\""
par CampusNetwork.bbaRouter.ethg$o[0].channel disabled false
attr mutable ""
par CampusNetwork.bbaRouter.ethg$o[0].channel delay 0.002s
attr mutable ""
attr unit s
par CampusNetwork.bbaRouter.ethg$o[0].channel datarate 1e+08bps
attr mutable ""
attr unit bps
par CampusNetwork.bbaRouter.ethg$o[0].channel ber 0
attr mutable ""
par CampusNetwork.bbaRouter.ethg$o[0].channel per 0
attr mutable ""
par CampusNetwork.coreRouter.ethg$o[3].channel typename "\"ned.DatarateChannel\""
par CampusNetwork.coreRouter.ethg$o[3].channel disabled false
attr mutable ""
par CampusNetwork.coreRouter.ethg$o[3].channel delay 0.002s
attr mutable ""
attr unit s
par CampusNetwork.coreRouter.ethg$o[3].channel datarate 1e+08bps
attr mutable ""
attr unit bps
par CampusNetwork.coreRouter.ethg$o[3].channel ber 0
attr mutable ""
par CampusNetwork.coreRouter.ethg$o[3].channel per 0
attr mutable ""
par CampusNetwork.adminRouter.ethg$o[0].channel typename "\"ned.DatarateChannel\""
par CampusNetwork.adminRouter.ethg$o[0].channel disabled false
attr mutable ""
par CampusNetwork.adminRouter.ethg$o[0].channel delay 0.002s
attr mutable ""
attr unit s
par CampusNetwork.adminRouter.ethg$o[0].channel datarate 1e+08bps
attr mutable ""
attr unit bps
par CampusNetwork.adminRouter.ethg$o[0].channel ber 0
attr mutable ""
par CampusNetwork.adminRouter.ethg$o[0].channel per 0
attr mutable ""
par CampusNetwork.coreRouter.ethg$o[4].channel typename "\"ned.DatarateChannel\""
par CampusNetwork.coreRouter.ethg$o[4].channel disabled false
attr mutable ""
par CampusNetwork.coreRouter.ethg$o[4].channel delay 0.001s
attr mutable ""
attr unit s
par CampusNetwork.coreRouter.ethg$o[4].channel datarate 1e+08bps
attr mutable ""
attr unit bps
par CampusNetwork.coreRouter.ethg$o[4].channel ber 0
attr mutable ""
par CampusNetwork.coreRouter.ethg$o[4].channel per 0
attr mutable ""
par CampusNetwork.dnsServer.ethg$o[0].channel typename "\"ned.DatarateChannel\""
par CampusNetwork.dnsServer.ethg$o[0].channel disabled false
attr mutable ""
par CampusNetwork.dnsServer.ethg$o[0].channel delay 0.001s
attr mutable ""
attr unit s
par CampusNetwork.dnsServer.ethg$o[0].channel datarate 1e+08bps
attr mutable ""
attr unit bps
par CampusNetwork.dnsServer.ethg$o[0].channel ber 0
attr mutable ""
par CampusNetwork.dnsServer.ethg$o[0].channel per 0
attr mutable ""
par CampusNetwork.coreRouter.ethg$o[5].channel typename "\"ned.DatarateChannel\""
par CampusNetwork.coreRouter.ethg$o[5].channel disabled false
attr mutable ""
par CampusNetwork.coreRouter.ethg$o[5].channel delay 0.001s
attr mutable ""
attr unit s
par CampusNetwork.coreRouter.ethg$o[5].channel datarate 1e+08bps
attr mutable ""
attr unit bps
par CampusNetwork.coreRouter.ethg$o[5].channel ber 0
attr mutable ""
par CampusNetwork.coreRouter.ethg$o[5].channel per 0
attr mutable ""
par CampusNetwork.appServer.ethg$o[0].channel typename "\"ned.DatarateChannel\""
par CampusNetwork.appServer.ethg$o[0].channel disabled false
attr mutable ""
par CampusNetwork.appServer.ethg$o[0].channel delay 0.001s
attr mutable ""
attr unit s
par CampusNetwork.appServer.ethg$o[0].channel datarate 1e+08bps
attr mutable ""
attr unit bps
par CampusNetwork.appServer.ethg$o[0].channel ber 0
attr mutable ""
par CampusNetwork.appServer.ethg$o[0].channel per 0
attr mutable ""
par CampusNetwork.seRouter.ethg$o[1].channel typename "\"ned.DatarateChannel\""
par CampusNetwork.seRouter.ethg$o[1].channel disabled false
attr mutable ""
par CampusNetwork.seRouter.ethg$o[1].channel delay 0.001s
attr mutable ""
attr unit s
par CampusNetwork.seRouter.ethg$o[1].channel datarate 1e+07bps
attr mutable ""
attr unit bps
par CampusNetwork.seRouter.ethg$o[1].channel ber 0
attr mutable ""
par CampusNetwork.seRouter.ethg$o[1].channel per 0
attr mutable ""
par CampusNetwork.seHost1.ethg$o[0].channel typename "\"ned.DatarateChannel\""
par CampusNetwork.seHost1.ethg$o[0].channel disabled false
attr mutable ""
par CampusNetwork.seHost1.ethg$o[0].channel delay 0.001s
attr mutable ""
attr unit s
par CampusNetwork.seHost1.ethg$o[0].channel datarate 1e+07bps
attr mutable ""
attr unit bps
par CampusNetwork.seHost1.ethg$o[0].channel ber 0
attr mutable ""
par CampusNetwork.seHost1.ethg$o[0].channel per 0
attr mutable ""
par CampusNetwork.seRouter.ethg$o[2].channel typename "\"ned.DatarateChannel\""
par CampusNetwork.seRouter.ethg$o[2].channel disabled false
attr mutable ""
par CampusNetwork.seRouter.ethg$o[2].channel delay 0.001s
attr mutable ""
attr unit s
par CampusNetwork.seRouter.ethg$o[2].channel datarate 1e+07bps
attr mutable ""
attr unit bps
par CampusNetwork.seRouter.ethg$o[2].channel ber 0
attr mutable ""
par CampusNetwork.seRouter.ethg$o[2].channel per 0
attr mutable ""
par CampusNetwork.seHost2.ethg$o[0].channel typename "\"ned.DatarateChannel\""
par CampusNetwork.seHost2.ethg$o[0].channel disabled false
attr mutable ""
par CampusNetwork.seHost2.ethg$o[0].channel delay 0.001s
attr mutable ""
attr unit s
par CampusNetwork.seHost2.ethg$o[0].channel datarate 1e+07bps
attr mutable ""
attr unit bps
par CampusNetwork.seHost2.ethg$o[0].channel ber 0
attr mutable ""
par CampusNetwork.seHost2.ethg$o[0].channel per 0
attr mutable ""
par CampusNetwork.seRouter.ethg$o[3].channel typename "\"ned.DatarateChannel\""
par CampusNetwork.seRouter.ethg$o[3].channel disabled false
attr mutable ""
par CampusNetwork.seRouter.ethg$o[3].channel delay 0.001s
attr mutable ""
attr unit s
par CampusNetwork.seRouter.ethg$o[3].channel datarate 1e+07bps
attr mutable ""
attr unit bps
par CampusNetwork.seRouter.ethg$o[3].channel ber 0
attr mutable ""
par CampusNetwork.seRouter.ethg$o[3].channel per 0
attr mutable ""
par CampusNetwork.seHost3.ethg$o[0].channel typename "\"ned.DatarateChannel\""
par CampusNetwork.seHost3.ethg$o[0].channel disabled false
attr mutable ""
par CampusNetwork.seHost3.ethg$o[0].channel delay 0.001s
attr mutable ""
attr unit s
par CampusNetwork.seHost3.ethg$o[0].channel datarate 1e+07bps
attr mutable ""
attr unit bps
par CampusNetwork.seHost3.ethg$o[0].channel ber 0
attr mutable ""
par CampusNetwork.seHost3.ethg$o[0].channel per 0
attr mutable ""
par CampusNetwork.eeRouter.ethg$o[1].channel typename "\"ned.DatarateChannel\""
par CampusNetwork.eeRouter.ethg$o[1].channel disabled false
attr mutable ""
par CampusNetwork.eeRouter.ethg$o[1].channel delay 0.001s
attr mutable ""
attr unit s
par CampusNetwork.eeRouter.ethg$o[1].channel datarate 1e+07bps
attr mutable ""
attr unit bps
par CampusNetwork.eeRouter.ethg$o[1].channel ber 0
attr mutable ""
par CampusNetwork.eeRouter.ethg$o[1].channel per 0
attr mutable ""
par CampusNetwork.eeHost1.ethg$o[0].channel typename "\"ned.DatarateChannel\""
par CampusNetwork.eeHost1.ethg$o[0].channel disabled false
attr mutable ""
par CampusNetwork.eeHost1.ethg$o[0].channel delay 0.001s
attr mutable ""
attr unit s
par CampusNetwork.eeHost1.ethg$o[0].channel datarate 1e+07bps
attr mutable ""
attr unit bps
par CampusNetwork.eeHost1.ethg$o[0].channel ber 0
attr mutable ""
par CampusNetwork.eeHost1.ethg$o[0].channel per 0
attr mutable ""
par CampusNetwork.eeRouter.ethg$o[2].channel typename "\"ned.DatarateChannel\""
par CampusNetwork.eeRouter.ethg$o[2].channel disabled false
attr mutable ""
par CampusNetwork.eeRouter.ethg$o[2].channel delay 0.001s
attr mutable ""
attr unit s
par CampusNetwork.eeRouter.ethg$o[2].channel datarate 1e+07bps
attr mutable ""
attr unit bps
par CampusNetwork.eeRouter.ethg$o[2].channel ber 0
attr mutable ""
par CampusNetwork.eeRouter.ethg$o[2].channel per 0
attr mutable ""
par CampusNetwork.eeHost2.ethg$o[0].channel typename "\"ned.DatarateChannel\""
par CampusNetwork.eeHost2.ethg$o[0].channel disabled false
attr mutable ""
par CampusNetwork.eeHost2.ethg$o[0].channel delay 0.001s
attr mutable ""
attr unit s
par CampusNetwork.eeHost2.ethg$o[0].channel datarate 1e+07bps
attr mutable ""
attr unit bps
par CampusNetwork.eeHost2.ethg$o[0].channel ber 0
attr mutable ""
par CampusNetwork.eeHost2.ethg$o[0].channel per 0
attr mutable ""
par CampusNetwork.eeRouter.ethg$o[3].channel typename "\"ned.DatarateChannel\""
par CampusNetwork.eeRouter.ethg$o[3].channel disabled false
attr mutable ""
par CampusNetwork.eeRouter.ethg$o[3].channel delay 0.001s
attr mutable ""
attr unit s
par CampusNetwork.eeRouter.ethg$o[3].channel datarate 1e+07bps
attr mutable ""
attr unit bps
par CampusNetwork.eeRouter.ethg$o[3].channel ber 0
attr mutable ""
par CampusNetwork.eeRouter.ethg$o[3].channel per 0
attr mutable ""
par CampusNetwork.eeHost3.ethg$o[0].channel typename "\"ned.DatarateChannel\""
par CampusNetwork.eeHost3.ethg$o[0].channel disabled false
attr mutable ""
par CampusNetwork.eeHost3.ethg$o[0].channel delay 0.001s
attr mutable ""
attr unit s
par CampusNetwork.eeHost3.ethg$o[0].channel datarate 1e+07bps
attr mutable ""
attr unit bps
par CampusNetwork.eeHost3.ethg$o[0].channel ber 0
attr mutable ""
par CampusNetwork.eeHost3.ethg$o[0].channel per 0
attr mutable ""
par CampusNetwork.bbaRouter.ethg$o[1].channel typename "\"ned.DatarateChannel\""
par CampusNetwork.bbaRouter.ethg$o[1].channel disabled false
attr mutable ""
par CampusNetwork.bbaRouter.ethg$o[1].channel delay 0.001s
attr mutable ""
attr unit s
par CampusNetwork.bbaRouter.ethg$o[1].channel datarate 1e+07bps
attr mutable ""
attr unit bps
par CampusNetwork.bbaRouter.ethg$o[1].channel ber 0
attr mutable ""
par CampusNetwork.bbaRouter.ethg$o[1].channel per 0
attr mutable ""
par CampusNetwork.bbaHost1.ethg$o[0].channel typename "\"ned.DatarateChannel\""
par CampusNetwork.bbaHost1.ethg$o[0].channel disabled false
attr mutable ""
par CampusNetwork.bbaHost1.ethg$o[0].channel delay 0.001s
attr mutable ""
attr unit s
par CampusNetwork.bbaHost1.ethg$o[0].channel datarate 1e+07bps
attr mutable ""
attr unit bps
par CampusNetwork.bbaHost1.ethg$o[0].channel ber 0
attr mutable ""
par CampusNetwork.bbaHost1.ethg$o[0].channel per 0
attr mutable ""
par CampusNetwork.bbaRouter.ethg$o[2].channel typename "\"ned.DatarateChannel\""
par CampusNetwork.bbaRouter.ethg$o[2].channel disabled false
attr mutable ""
par CampusNetwork.bbaRouter.ethg$o[2].channel delay 0.001s
attr mutable ""
attr unit s
par CampusNetwork.bbaRouter.ethg$o[2].channel datarate 1e+07bps
attr mutable ""
attr unit bps
par CampusNetwork.bbaRouter.ethg$o[2].channel ber 0
attr mutable ""
par CampusNetwork.bbaRouter.ethg$o[2].channel per 0
attr mutable ""
par CampusNetwork.bbaHost2.ethg$o[0].channel typename "\"ned.DatarateChannel\""
par CampusNetwork.bbaHost2.ethg$o[0].channel disabled false
attr mutable ""
par CampusNetwork.bbaHost2.ethg$o[0].channel delay 0.001s
attr mutable ""
attr unit s
par CampusNetwork.bbaHost2.ethg$o[0].channel datarate 1e+07bps
attr mutable ""
attr unit bps
par CampusNetwork.bbaHost2.ethg$o[0].channel ber 0
attr mutable ""
par CampusNetwork.bbaHost2.ethg$o[0].channel per 0
attr mutable ""
par CampusNetwork.bbaRouter.ethg$o[3].channel typename "\"ned.DatarateChannel\""
par CampusNetwork.bbaRouter.ethg$o[3].channel disabled false
attr mutable ""
par CampusNetwork.bbaRouter.ethg$o[3].channel delay 0.001s
attr mutable ""
attr unit s
par CampusNetwork.bbaRouter.ethg$o[3].channel datarate 1e+07bps
attr mutable ""
attr unit bps
par CampusNetwork.bbaRouter.ethg$o[3].channel ber 0
attr mutable ""
par CampusNetwork.bbaRouter.ethg$o[3].channel per 0
attr mutable ""
par CampusNetwork.bbaHost3.ethg$o[0].channel typename "\"ned.DatarateChannel\""
par CampusNetwork.bbaHost3.ethg$o[0].channel disabled false
attr mutable ""
par CampusNetwork.bbaHost3.ethg$o[0].channel delay 0.001s
attr mutable ""
attr unit s
par CampusNetwork.bbaHost3.ethg$o[0].channel datarate 1e+07bps
attr mutable ""
attr unit bps
par CampusNetwork.bbaHost3.ethg$o[0].channel ber 0
attr mutable ""
par CampusNetwork.bbaHost3.ethg$o[0].channel per 0
attr mutable ""
par CampusNetwork.adminRouter.ethg$o[1].channel typename "\"ned.DatarateChannel\""
par CampusNetwork.adminRouter.ethg$o[1].channel disabled false
attr mutable ""
par CampusNetwork.adminRouter.ethg$o[1].channel delay 0.001s
attr mutable ""
attr unit s
par CampusNetwork.adminRouter.ethg$o[1].channel datarate 1e+07bps
attr mutable ""
attr unit bps
par CampusNetwork.adminRouter.ethg$o[1].channel ber 0
attr mutable ""
par CampusNetwork.adminRouter.ethg$o[1].channel per 0
attr mutable ""
par CampusNetwork.adminHost1.ethg$o[0].channel typename "\"ned.DatarateChannel\""
par CampusNetwork.adminHost1.ethg$o[0].channel disabled false
attr mutable ""
par CampusNetwork.adminHost1.ethg$o[0].channel delay 0.001s
attr mutable ""
attr unit s
par CampusNetwork.adminHost1.ethg$o[0].channel datarate 1e+07bps
attr mutable ""
attr unit bps
par CampusNetwork.adminHost1.ethg$o[0].channel ber 0
attr mutable ""
par CampusNetwork.adminHost1.ethg$o[0].channel per 0
attr mutable ""
par CampusNetwork.adminRouter.ethg$o[2].channel typename "\"ned.DatarateChannel\""
par CampusNetwork.adminRouter.ethg$o[2].channel disabled false
attr mutable ""
par CampusNetwork.adminRouter.ethg$o[2].channel delay 0.001s
attr mutable ""
attr unit s
par CampusNetwork.adminRouter.ethg$o[2].channel datarate 1e+07bps
attr mutable ""
attr unit bps
par CampusNetwork.adminRouter.ethg$o[2].channel ber 0
attr mutable ""
par CampusNetwork.adminRouter.ethg$o[2].channel per 0
attr mutable ""
par CampusNetwork.adminHost2.ethg$o[0].channel typename "\"ned.DatarateChannel\""
par CampusNetwork.adminHost2.ethg$o[0].channel disabled false
attr mutable ""
par CampusNetwork.adminHost2.ethg$o[0].channel delay 0.001s
attr mutable ""
attr unit s
par CampusNetwork.adminHost2.ethg$o[0].channel datarate 1e+07bps
attr mutable ""
attr unit bps
par CampusNetwork.adminHost2.ethg$o[0].channel ber 0
attr mutable ""
par CampusNetwork.adminHost2.ethg$o[0].channel per 0
attr mutable ""
par CampusNetwork.adminRouter.ethg$o[3].channel typename "\"ned.DatarateChannel\""
par CampusNetwork.adminRouter.ethg$o[3].channel disabled false
attr mutable ""
par CampusNetwork.adminRouter.ethg$o[3].channel delay 0.001s
attr mutable ""
attr unit s
par CampusNetwork.adminRouter.ethg$o[3].channel datarate 1e+07bps
attr mutable ""
attr unit bps
par CampusNetwork.adminRouter.ethg$o[3].channel ber 0
attr mutable ""
par CampusNetwork.adminRouter.ethg$o[3].channel per 0
attr mutable ""
par CampusNetwork.adminHost3.ethg$o[0].channel typename "\"ned.DatarateChannel\""
par CampusNetwork.adminHost3.ethg$o[0].channel disabled false
attr mutable ""
par CampusNetwork.adminHost3.ethg$o[0].channel delay 0.001s
attr mutable ""
attr unit s
par CampusNetwork.adminHost3.ethg$o[0].channel datarate 1e+07bps
attr mutable ""
attr unit bps
par CampusNetwork.adminHost3.ethg$o[0].channel ber 0
attr mutable ""
par CampusNetwork.adminHost3.ethg$o[0].channel per 0
attr mutable ""
par CampusNetwork.configurator typename "\"inet.networklayer.configurator.ipv4.Ipv4NetworkConfigurator\""
par CampusNetwork.configurator minLinkWeight 0.001
par CampusNetwork.configurator configureIsolatedNetworksSeparatly false
par CampusNetwork.configurator config "<config>...</config> at content:1"
par CampusNetwork.configurator assignAddresses true
par CampusNetwork.configurator assignUniqueAddresses true
par CampusNetwork.configurator assignDisjunctSubnetAddresses true
par CampusNetwork.configurator addStaticRoutes true
par CampusNetwork.configurator addDefaultRoutes true
par CampusNetwork.configurator addSubnetRoutes true
par CampusNetwork.configurator addDirectRoutes true
par CampusNetwork.configurator optimizeRoutes true
par CampusNetwork.configurator dumpTopology false
par CampusNetwork.configurator dumpLinks false
par CampusNetwork.configurator dumpAddresses false
par CampusNetwork.configurator dumpRoutes false
par CampusNetwork.configurator dumpConfig "\"\""
par CampusNetwork.scenarioManager typename "\"inet.common.scenario.ScenarioManager\""
par CampusNetwork.scenarioManager script "<script>...</script> at content:1"
par CampusNetwork.coreRouter.ethg$i[0].channel typename "\"ned.IdealChannel\""
par CampusNetwork.coreRouter.eth[0].phys$o.channel typename "\"ned.IdealChannel\""
par CampusNetwork.coreRouter.ethg$i[1].channel typename "\"ned.IdealChannel\""
par CampusNetwork.coreRouter.eth[1].phys$o.channel typename "\"ned.IdealChannel\""
par CampusNetwork.coreRouter.ethg$i[2].channel typename "\"ned.IdealChannel\""
par CampusNetwork.coreRouter.eth[2].phys$o.channel typename "\"ned.IdealChannel\""
par CampusNetwork.coreRouter.ethg$i[3].channel typename "\"ned.IdealChannel\""
par CampusNetwork.coreRouter.eth[3].phys$o.channel typename "\"ned.IdealChannel\""
par CampusNetwork.coreRouter.ethg$i[4].channel typename "\"ned.IdealChannel\""
par CampusNetwork.coreRouter.eth[4].phys$o.channel typename "\"ned.IdealChannel\""
par CampusNetwork.coreRouter.ethg$i[5].channel typename "\"ned.IdealChannel\""
par CampusNetwork.coreRouter.eth[5].phys$o.channel typename "\"ned.IdealChannel\""
par CampusNetwork.coreRouter.interfaceTable typename "\"inet.networklayer.common.InterfaceTable\""
par CampusNetwork.coreRouter.interfaceTable displayAddresses false
par CampusNetwork.coreRouter.cb typename "\"inet.common.MessageDispatcher\""
par CampusNetwork.coreRouter.cb displayStringTextFormat "\"processed %p pk (%l)\""
par CampusNetwork.coreRouter.cb forwardServiceRegistration true
par CampusNetwork.coreRouter.cb forwardProtocolRegistration true
par CampusNetwork.coreRouter.bl typename "\"inet.common.MessageDispatcher\""
par CampusNetwork.coreRouter.bl displayStringTextFormat "\"processed %p pk (%l)\""
par CampusNetwork.coreRouter.bl forwardServiceRegistration true
par CampusNetwork.coreRouter.bl forwardProtocolRegistration true
par CampusNetwork.coreRouter.ethernet typename "\"inet.linklayer.ethernet.basic.EthernetEncapsulation\""
par CampusNetwork.coreRouter.ethernet registerProtocol true
par CampusNetwork.coreRouter.ethernet interfaceTableModule "\"CampusNetwork.coreRouter.interfaceTable\""
par CampusNetwork.coreRouter.ethernet fcsMode "\"declared\""
attr enum declared,computed
par CampusNetwork.coreRouter.ethernet stopOperationExtraTime -1s
attr unit s
par CampusNetwork.coreRouter.ethernet stopOperationTimeout 2s
attr unit s
scalar CampusNetwork.coreRouter.ethernet decapPk:count 0
attr interpolationmode none
attr recordingmode count
attr source decapPk
attr title "packets decapsulated, count"
scalar CampusNetwork.coreRouter.ethernet decapPk:sum(packetBytes) 0
attr interpolationmode none
attr recordingmode sum(packetBytes)
attr source decapPk
attr title "packets decapsulated, sum(packetBytes)"
scalar CampusNetwork.coreRouter.ethernet encapPk:count 0
attr interpolationmode none
attr recordingmode count
attr source encapPk
attr title "packets encapsulated, count"
scalar CampusNetwork.coreRouter.ethernet encapPk:sum(packetBytes) 0
attr interpolationmode none
attr recordingmode sum(packetBytes)
attr source encapPk
attr title "packets encapsulated, sum(packetBytes)"
scalar CampusNetwork.coreRouter.ethernet pauseSent:count 0
attr recordingmode count
attr title "pause sent, count"
scalar CampusNetwork.coreRouter.ethernet pauseSent:sum 0
attr recordingmode sum
attr title "pause sent, sum"
par CampusNetwork.coreRouter.li typename "\"inet.common.MessageDispatcher\""
par CampusNetwork.coreRouter.li displayStringTextFormat "\"processed %p pk (%l)\""
par CampusNetwork.coreRouter.li forwardServiceRegistration true
par CampusNetwork.coreRouter.li forwardProtocolRegistration true
par CampusNetwork.coreRouter.lo[0].upperLayerIn.channel typename "\"ned.IdealChannel\""
par CampusNetwork.coreRouter.lo[0].lo.upperLayerOut.channel typename "\"ned.IdealChannel\""
par CampusNetwork.coreRouter.lo[0].lo typename "\"inet.linklayer.loopback.Loopback\""
par CampusNetwork.coreRouter.lo[0].lo interfaceTableModule "\"CampusNetwork.coreRouter.interfaceTable\""
par CampusNetwork.coreRouter.lo[0].lo mtu 4470B
attr unit B
scalar CampusNetwork.coreRouter.lo[0].lo rcvdPkFromHl:count 0
attr interpolationmode none
attr recordingmode count
attr source packetReceivedFromUpper
attr title "packets received from higher layer, count"
scalar CampusNetwork.coreRouter.lo[0].lo rcvdPkFromHl:sum(packetBytes) 0
attr interpolationmode none
attr recordingmode sum(packetBytes)
attr source packetReceivedFromUpper
attr title "packets received from higher layer, sum(packetBytes)"
scalar CampusNetwork.coreRouter.lo[0].lo passedUpPk:count 0
attr interpolationmode none
attr recordingmode count
attr source packetSentToUpper
attr title "packets passed to higher layer, count"
scalar CampusNetwork.coreRouter.lo[0].lo passedUpPk:sum(packetBytes) 0
attr interpolationmode none
attr recordingmode sum(packetBytes)
attr source packetSentToUpper
attr title "packets passed to higher layer, sum(packetBytes)"
par CampusNetwork.coreRouter.lo[0] typename "\"inet.linklayer.loopback.LoopbackInterface\""
par CampusNetwork.coreRouter.lo[0] displayStringTextFormat "\"%a (%i)\\n%m\""
par CampusNetwork.coreRouter.lo[0] recordPcap false
par CampusNetwork.coreRouter.lo[0] numPcapRecorders 0
par CampusNetwork.coreRouter.lo[0] interfaceTableModule "\"CampusNetwork.coreRouter.interfaceTable\""
scalar CampusNetwork.coreRouter.lo[0] packetDropInterfaceDown:count 0
attr interpolationmode none
attr recordingmode count
attr source packetDropReasonIsInterfaceDown(packetDropped)
attr title "packet drops: interface down, count"
scalar CampusNetwork.coreRouter.lo[0] packetDropInterfaceDown:sum(packetBytes) 0
attr interpolationmode none
attr recordingmode sum(packetBytes)
attr source packetDropReasonIsInterfaceDown(packetDropped)
attr title "packet drops: interface down, sum(packetBytes)"
scalar CampusNetwork.coreRouter.lo[0] packetDropNoCarrier:count 0
attr interpolationmode none
attr recordingmode count
attr source packetDropReasonIsNoCarrier(packetDropped)
attr title "packet drops: no carrier, count"
scalar CampusNetwork.coreRouter.lo[0] packetDropNoCarrier:sum(packetBytes) 0
attr interpolationmode none
attr recordingmode sum(packetBytes)
attr source packetDropReasonIsNoCarrier(packetDropped)
attr title "packet drops: no carrier, sum(packetBytes)"
par CampusNetwork.coreRouter.eth[0].mac.phys$o.channel typename "\"ned.IdealChannel\""
par CampusNetwork.coreRouter.eth[0].phys$i.channel typename "\"ned.IdealChannel\""
par CampusNetwork.coreRouter.eth[0].upperLayerIn.channel typename "\"ned.IdealChannel\""
par CampusNetwork.coreRouter.eth[0].mac.upperLayerOut.channel typename "\"ned.IdealChannel\""
par CampusNetwork.coreRouter.eth[0].queue typename "\"inet.linklayer.ethernet.common.EthernetQueue\""
par CampusNetwork.coreRouter.eth[0].queue displayStringTextFormat "\"contains %p pk (%l) pushed %u\\npulled %o removed %r dropped %d\""
par CampusNetwork.coreRouter.eth[0].queue packetCapacity 1000
par CampusNetwork.coreRouter.eth[0].queue dataCapacity -1b
attr unit b
par CampusNetwork.coreRouter.eth[0].queue dropperClass "\"inet::queueing::PacketAtCollectionEndDropper\""
par CampusNetwork.coreRouter.eth[0].queue comparatorClass "\"inet::EthernetFrameTypeComparator\""
par CampusNetwork.coreRouter.eth[0].queue bufferModule "\"\""
scalar CampusNetwork.coreRouter.eth[0].queue queueLength:last 0
attr autoWarmupFilter false
attr interpolationmode sample-hold
attr recordingmode last
attr source "warmup(atomic(constant0(packetPushEnded) + count(packetPushStarted) - count(packetPulled) - count(packetRemoved) - count(packetDropped)))"
attr title "queue length, last"
attr unit pk
scalar CampusNetwork.coreRouter.eth[0].queue queueLength:max 0
attr autoWarmupFilter false
attr interpolationmode sample-hold
attr recordingmode max
attr source "warmup(atomic(constant0(packetPushEnded) + count(packetPushStarted) - count(packetPulled) - count(packetRemoved) - count(packetDropped)))"
attr title "queue length, max"
attr unit pk
scalar CampusNetwork.coreRouter.eth[0].queue queueLength:timeavg 0
attr autoWarmupFilter false
attr interpolationmode sample-hold
attr recordingmode timeavg
attr source "warmup(atomic(constant0(packetPushEnded) + count(packetPushStarted) - count(packetPulled) - count(packetRemoved) - count(packetDropped)))"
attr title "queue length, timeavg"
attr unit pk
scalar CampusNetwork.coreRouter.eth[0].queue queueBitLength:last 0
attr autoWarmupFilter false
attr interpolationmode sample-hold
attr recordingmode last
attr source "warmup(atomic(constant0(packetPushEnded) + sum(packetLength(packetPushStarted)) - sum(packetLength(packetPulled)) - sum(packetLength(packetRemoved)) - sum(packetLength(packetDropped))))"
attr title "queue bit length, last"
attr unit b
scalar CampusNetwork.coreRouter.eth[0].queue queueBitLength:max 0
attr autoWarmupFilter false
attr interpolationmode sample-hold
attr recordingmode max
attr source "warmup(atomic(constant0(packetPushEnded) + sum(packetLength(packetPushStarted)) - sum(packetLength(packetPulled)) - sum(packetLength(packetRemoved)) - sum(packetLength(packetDropped))))"
attr title "queue bit length, max"
attr unit b
scalar CampusNetwork.coreRouter.eth[0].queue queueBitLength:timeavg 0
attr autoWarmupFilter false
attr interpolationmode sample-hold
attr recordingmode timeavg
attr source "warmup(atomic(constant0(packetPushEnded) + sum(packetLength(packetPushStarted)) - sum(packetLength(packetPulled)) - sum(packetLength(packetRemoved)) - sum(packetLength(packetDropped))))"
attr title "queue bit length, timeavg"
attr unit b
statistic CampusNetwork.coreRouter.eth[0].queue queueingTime:histogram
field count 0
field mean -nan(ind)
field stddev nan
field min nan
field max nan
field sum 0
field sqrsum 0
attr interpolationmode none
attr recordingmode histogram
attr source queueingTime(packetPulled)
attr title "queueing times"
attr unit s
bin	-inf	0
bin	0	0
bin	1	0
scalar CampusNetwork.coreRouter.eth[0].queue outgoingPackets:count 0
attr recordingmode count
attr source packetPulled
attr title "outgoing packets, count"
attr unit pk
scalar CampusNetwork.coreRouter.eth[0].queue outgoingPacketLengths:sum 0
attr interpolationmode none
attr recordingmode sum
attr source packetLength(packetPulled)
attr title "outgoing packet lengths, sum"
attr unit b
statistic CampusNetwork.coreRouter.eth[0].queue outgoingPacketLengths:histogram
field count 0
field mean -nan(ind)
field stddev nan
field min nan
field max nan
field sum 0
field sqrsum 0
attr interpolationmode none
attr recordingmode histogram
attr source packetLength(packetPulled)
attr title "outgoing packet lengths"
attr unit b
bin	-inf	0
bin	0	0
bin	1	0
statistic CampusNetwork.coreRouter.eth[0].queue flowQueueingTime:histogram
field count 0
field mean -nan(ind)
field stddev nan
field min nan
field max nan
field sum 0
field sqrsum 0
attr interpolationmode none
attr recordingmode histogram
attr source queueingTime(demuxFlow(packetPulled))
attr title "flow queueing times"
attr unit s
bin	-inf	0
bin	0	0
bin	1	0
scalar CampusNetwork.coreRouter.eth[0].queue incomingPackets:count 0
attr recordingmode count
attr source packetPushStarted
attr title "incoming packets, count"
attr unit pk
scalar CampusNetwork.coreRouter.eth[0].queue incomingPacketLengths:sum 0
attr interpolationmode none
attr recordingmode sum
attr source packetLength(packetPushStarted)
attr title "incoming packet lengths, sum"
attr unit b
statistic CampusNetwork.coreRouter.eth[0].queue incomingPacketLengths:histogram
field count 0
field mean -nan(ind)
field stddev nan
field min nan
field max nan
field sum 0
field sqrsum 0
attr interpolationmode none
attr recordingmode histogram
attr source packetLength(packetPushStarted)
attr title "incoming packet lengths"
attr unit b
bin	-inf	0
bin	0	0
bin	1	0
scalar CampusNetwork.coreRouter.eth[0].queue droppedPacketsQueueOverflow:count 0
attr interpolationmode none
attr recordingmode count
attr source packetDropReasonIsQueueOverflow(packetDropped)
attr title "dropped packets: queue overflow, count"
attr unit pk
scalar CampusNetwork.coreRouter.eth[0].queue droppedPacketLengthsQueueOverflow:sum 0
attr interpolationmode none
attr recordingmode sum
attr source packetLength(packetDropReasonIsQueueOverflow(packetDropped))
attr title "dropped packet lengths: queue overflow, sum"
attr unit b
par CampusNetwork.coreRouter.eth[0].mac typename "\"inet.linklayer.ethernet.basic.EthernetMac\""
par CampusNetwork.coreRouter.eth[0].mac interfaceTableModule "\"CampusNetwork.coreRouter.interfaceTable\""
par CampusNetwork.coreRouter.eth[0].mac displayStringTextFormat "\"rate: %b\\nsent: %s, rcvd: %r\\nqueue: %q, drop: %d\""
par CampusNetwork.coreRouter.eth[0].mac sendRawBytes false
par CampusNetwork.coreRouter.eth[0].mac promiscuous false
par CampusNetwork.coreRouter.eth[0].mac duplexMode true
par CampusNetwork.coreRouter.eth[0].mac mtu 1500B
attr unit B
par CampusNetwork.coreRouter.eth[0].mac fcsMode "\"declared\""
attr enum declared,computed
par CampusNetwork.coreRouter.eth[0].mac stopOperationExtraTime -1s
attr unit s
par CampusNetwork.coreRouter.eth[0].mac stopOperationTimeout 2s
attr unit s
scalar CampusNetwork.coreRouter.eth[0].mac "simulated time" 2.151528
scalar CampusNetwork.coreRouter.eth[0].mac full-duplex 1
scalar CampusNetwork.coreRouter.eth[0].mac "frames/sec sent" 0
scalar CampusNetwork.coreRouter.eth[0].mac "frames/sec rcvd" 0
scalar CampusNetwork.coreRouter.eth[0].mac "bits/sec sent" 0
scalar CampusNetwork.coreRouter.eth[0].mac "bits/sec rcvd" 0
scalar CampusNetwork.coreRouter.eth[0].mac "rx channel idle (%)" 100
scalar CampusNetwork.coreRouter.eth[0].mac "rx channel utilization (%)" 0
scalar CampusNetwork.coreRouter.eth[0].mac txPk:count 0
attr interpolationmode none
attr recordingmode count
attr source packetSentToLower
attr title "packets transmitted, count"
scalar CampusNetwork.coreRouter.eth[0].mac txPk:sum(packetBytes) 0
attr interpolationmode none
attr recordingmode sum(packetBytes)
attr source packetSentToLower
attr title "packets transmitted, sum(packetBytes)"
scalar CampusNetwork.coreRouter.eth[0].mac packetReceivedFromUpper:count 0
attr interpolationmode none
attr recordingmode count
attr source packetReceivedFromUpper
attr title "packet bytes from higher layer, count"
scalar CampusNetwork.coreRouter.eth[0].mac packetReceivedFromUpper:sum(packetBytes) 0
attr interpolationmode none
attr recordingmode sum(packetBytes)
attr source packetReceivedFromUpper
attr title "packet bytes from higher layer, sum(packetBytes)"
scalar CampusNetwork.coreRouter.eth[0].mac passedUpPk:count 0
attr interpolationmode none
attr recordingmode count
attr source packetSentToUpper
attr title "packets passed to higher layer, count"
scalar CampusNetwork.coreRouter.eth[0].mac passedUpPk:sum(packetBytes) 0
attr interpolationmode none
attr recordingmode sum(packetBytes)
attr source packetSentToUpper
attr title "packets passed to higher layer, sum(packetBytes)"
scalar CampusNetwork.coreRouter.eth[0].mac packetDropIncorrectlyReceived:count 0
attr interpolationmode none
attr recordingmode count
attr source packetDropReasonIsIncorrectlyReceived(packetDropped)
attr title "packet drop: incorrectly received, count"
scalar CampusNetwork.coreRouter.eth[0].mac packetDropIncorrectlyReceived:sum(packetBytes) 0
attr interpolationmode none
attr recordingmode sum(packetBytes)
attr source packetDropReasonIsIncorrectlyReceived(packetDropped)
attr title "packet drop: incorrectly received, sum(packetBytes)"
scalar CampusNetwork.coreRouter.eth[0].mac packetDropInterfaceDown:count 0
attr interpolationmode none
attr recordingmode count
attr source packetDropReasonIsInterfaceDown(packetDropped)
attr title "packet drop: interface down, count"
scalar CampusNetwork.coreRouter.eth[0].mac packetDropInterfaceDown:sum(packetBytes) 0
attr interpolationmode none
attr recordingmode sum(packetBytes)
attr source packetDropReasonIsInterfaceDown(packetDropped)
attr title "packet drop: interface down, sum(packetBytes)"
scalar CampusNetwork.coreRouter.eth[0].mac packetDropNotAddressedToUs:count 0
attr interpolationmode none
attr recordingmode count
attr source packetDropReasonIsNotAddressedToUs(packetDropped)
attr title "packet drop: not addressed to us, count"
scalar CampusNetwork.coreRouter.eth[0].mac packetDropNotAddressedToUs:sum(packetBytes) 0
attr interpolationmode none
attr recordingmode sum(packetBytes)
attr source packetDropReasonIsNotAddressedToUs(packetDropped)
attr title "packet drop: not addressed to us, sum(packetBytes)"
scalar CampusNetwork.coreRouter.eth[0].mac rxPausePkUnits:count 0
attr interpolationmode none
attr recordingmode count
attr title "pause units received, count"
scalar CampusNetwork.coreRouter.eth[0].mac rxPausePkUnits:sum 0
attr interpolationmode none
attr recordingmode sum
attr title "pause units received, sum"
scalar CampusNetwork.coreRouter.eth[0].mac txPausePkUnits:count 0
attr interpolationmode none
attr recordingmode count
attr title "pause units sent, count"
scalar CampusNetwork.coreRouter.eth[0].mac txPausePkUnits:sum 0
attr interpolationmode none
attr recordingmode sum
attr title "pause units sent, sum"
scalar CampusNetwork.coreRouter.eth[0].mac rxPkOk:count 0
attr interpolationmode none
attr recordingmode count
attr source rxPkOk
attr title "packets received OK, count"
scalar CampusNetwork.coreRouter.eth[0].mac rxPkOk:sum(packetBytes) 0
attr interpolationmode none
attr recordingmode sum(packetBytes)
attr source rxPkOk
attr title "packets received OK, sum(packetBytes)"
par CampusNetwork.coreRouter.eth[0] typename "\"inet.linklayer.ethernet.EthernetInterface\""
par CampusNetwork.coreRouter.eth[0] displayStringTextFormat "\"%a (%i)\\n%m\""
par CampusNetwork.coreRouter.eth[0] recordPcap false
par CampusNetwork.coreRouter.eth[0] numPcapRecorders 0
par CampusNetwork.coreRouter.eth[0] interfaceTableModule "\"CampusNetwork.coreRouter.interfaceTable\""
par CampusNetwork.coreRouter.eth[0] protocol "\"ethernetmac\""
par CampusNetwork.coreRouter.eth[0] address "\"0A-AA-00-00-00-01\""
attr mutable ""
par CampusNetwork.coreRouter.eth[0] duplexMode true
par CampusNetwork.coreRouter.eth[0] csmacdSupport false
par CampusNetwork.coreRouter.eth[0] bitrate 0bps
attr unit bps
par CampusNetwork.coreRouter.eth[0] fcsMode "\"declared\""
attr enum declared,computed
scalar CampusNetwork.coreRouter.eth[0] packetDropInterfaceDown:count 0
attr interpolationmode none
attr recordingmode count
attr source packetDropReasonIsInterfaceDown(packetDropped)
attr title "packet drops: interface down, count"
scalar CampusNetwork.coreRouter.eth[0] packetDropInterfaceDown:sum(packetBytes) 0
attr interpolationmode none
attr recordingmode sum(packetBytes)
attr source packetDropReasonIsInterfaceDown(packetDropped)
attr title "packet drops: interface down, sum(packetBytes)"
scalar CampusNetwork.coreRouter.eth[0] packetDropNoCarrier:count 0
attr interpolationmode none
attr recordingmode count
attr source packetDropReasonIsNoCarrier(packetDropped)
attr title "packet drops: no carrier, count"
scalar CampusNetwork.coreRouter.eth[0] packetDropNoCarrier:sum(packetBytes) 0
attr interpolationmode none
attr recordingmode sum(packetBytes)
attr source packetDropReasonIsNoCarrier(packetDropped)
attr title "packet drops: no carrier, sum(packetBytes)"
par CampusNetwork.coreRouter.eth[1].mac.phys$o.channel typename "\"ned.IdealChannel\""
par CampusNetwork.coreRouter.eth[1].phys$i.channel typename "\"ned.IdealChannel\""
par CampusNetwork.coreRouter.eth[1].upperLayerIn.channel typename "\"ned.IdealChannel\""
par CampusNetwork.coreRouter.eth[1].mac.upperLayerOut.channel typename "\"ned.IdealChannel\""
par CampusNetwork.coreRouter.eth[1].queue typename "\"inet.linklayer.ethernet.common.EthernetQueue\""
par CampusNetwork.coreRouter.eth[1].queue displayStringTextFormat "\"contains %p pk (%l) pushed %u\\npulled %o removed %r dropped %d\""
par CampusNetwork.coreRouter.eth[1].queue packetCapacity 1000
par CampusNetwork.coreRouter.eth[1].queue dataCapacity -1b
attr unit b
par CampusNetwork.coreRouter.eth[1].queue dropperClass "\"inet::queueing::PacketAtCollectionEndDropper\""
par CampusNetwork.coreRouter.eth[1].queue comparatorClass "\"inet::EthernetFrameTypeComparator\""
par CampusNetwork.coreRouter.eth[1].queue bufferModule "\"\""
scalar CampusNetwork.coreRouter.eth[1].queue queueLength:last 0
attr autoWarmupFilter false
attr interpolationmode sample-hold
attr recordingmode last
attr source "warmup(atomic(constant0(packetPushEnded) + count(packetPushStarted) - count(packetPulled) - count(packetRemoved) - count(packetDropped)))"
attr title "queue length, last"
attr unit pk
scalar CampusNetwork.coreRouter.eth[1].queue queueLength:max 0
attr autoWarmupFilter false
attr interpolationmode sample-hold
attr recordingmode max
attr source "warmup(atomic(constant0(packetPushEnded) + count(packetPushStarted) - count(packetPulled) - count(packetRemoved) - count(packetDropped)))"
attr title "queue length, max"
attr unit pk
scalar CampusNetwork.coreRouter.eth[1].queue queueLength:timeavg 0
attr autoWarmupFilter false
attr interpolationmode sample-hold
attr recordingmode timeavg
attr source "warmup(atomic(constant0(packetPushEnded) + count(packetPushStarted) - count(packetPulled) - count(packetRemoved) - count(packetDropped)))"
attr title "queue length, timeavg"
attr unit pk
scalar CampusNetwork.coreRouter.eth[1].queue queueBitLength:last 0
attr autoWarmupFilter false
attr interpolationmode sample-hold
attr recordingmode last
attr source "warmup(atomic(constant0(packetPushEnded) + sum(packetLength(packetPushStarted)) - sum(packetLength(packetPulled)) - sum(packetLength(packetRemoved)) - sum(packetLength(packetDropped))))"
attr title "queue bit length, last"
attr unit b
scalar CampusNetwork.coreRouter.eth[1].queue queueBitLength:max 0
attr autoWarmupFilter false
attr interpolationmode sample-hold
attr recordingmode max
attr source "warmup(atomic(constant0(packetPushEnded) + sum(packetLength(packetPushStarted)) - sum(packetLength(packetPulled)) - sum(packetLength(packetRemoved)) - sum(packetLength(packetDropped))))"
attr title "queue bit length, max"
attr unit b
scalar CampusNetwork.coreRouter.eth[1].queue queueBitLength:timeavg 0
attr autoWarmupFilter false
attr interpolationmode sample-hold
attr recordingmode timeavg
attr source "warmup(atomic(constant0(packetPushEnded) + sum(packetLength(packetPushStarted)) - sum(packetLength(packetPulled)) - sum(packetLength(packetRemoved)) - sum(packetLength(packetDropped))))"
attr title "queue bit length, timeavg"
attr unit b
statistic CampusNetwork.coreRouter.eth[1].queue queueingTime:histogram
field count 0
field mean -nan(ind)
field stddev nan
field min nan
field max nan
field sum 0
field sqrsum 0
attr interpolationmode none
attr recordingmode histogram
attr source queueingTime(packetPulled)
attr title "queueing times"
attr unit s
bin	-inf	0
bin	0	0
bin	1	0
scalar CampusNetwork.coreRouter.eth[1].queue outgoingPackets:count 0
attr recordingmode count
attr source packetPulled
attr title "outgoing packets, count"
attr unit pk
scalar CampusNetwork.coreRouter.eth[1].queue outgoingPacketLengths:sum 0
attr interpolationmode none
attr recordingmode sum
attr source packetLength(packetPulled)
attr title "outgoing packet lengths, sum"
attr unit b
statistic CampusNetwork.coreRouter.eth[1].queue outgoingPacketLengths:histogram
field count 0
field mean -nan(ind)
field stddev nan
field min nan
field max nan
field sum 0
field sqrsum 0
attr interpolationmode none
attr recordingmode histogram
attr source packetLength(packetPulled)
attr title "outgoing packet lengths"
attr unit b
bin	-inf	0
bin	0	0
bin	1	0
statistic CampusNetwork.coreRouter.eth[1].queue flowQueueingTime:histogram
field count 0
field mean -nan(ind)
field stddev nan
field min nan
field max nan
field sum 0
field sqrsum 0
attr interpolationmode none
attr recordingmode histogram
attr source queueingTime(demuxFlow(packetPulled))
attr title "flow queueing times"
attr unit s
bin	-inf	0
bin	0	0
bin	1	0
scalar CampusNetwork.coreRouter.eth[1].queue incomingPackets:count 0
attr recordingmode count
attr source packetPushStarted
attr title "incoming packets, count"
attr unit pk
scalar CampusNetwork.coreRouter.eth[1].queue incomingPacketLengths:sum 0
attr interpolationmode none
attr recordingmode sum
attr source packetLength(packetPushStarted)
attr title "incoming packet lengths, sum"
attr unit b
statistic CampusNetwork.coreRouter.eth[1].queue incomingPacketLengths:histogram
field count 0
field mean -nan(ind)
field stddev nan
field min nan
field max nan
field sum 0
field sqrsum 0
attr interpolationmode none
attr recordingmode histogram
attr source packetLength(packetPushStarted)
attr title "incoming packet lengths"
attr unit b
bin	-inf	0
bin	0	0
bin	1	0
scalar CampusNetwork.coreRouter.eth[1].queue droppedPacketsQueueOverflow:count 0
attr interpolationmode none
attr recordingmode count
attr source packetDropReasonIsQueueOverflow(packetDropped)
attr title "dropped packets: queue overflow, count"
attr unit pk
scalar CampusNetwork.coreRouter.eth[1].queue droppedPacketLengthsQueueOverflow:sum 0
attr interpolationmode none
attr recordingmode sum
attr source packetLength(packetDropReasonIsQueueOverflow(packetDropped))
attr title "dropped packet lengths: queue overflow, sum"
attr unit b
par CampusNetwork.coreRouter.eth[1].mac typename "\"inet.linklayer.ethernet.basic.EthernetMac\""
par CampusNetwork.coreRouter.eth[1].mac interfaceTableModule "\"CampusNetwork.coreRouter.interfaceTable\""
par CampusNetwork.coreRouter.eth[1].mac displayStringTextFormat "\"rate: %b\\nsent: %s, rcvd: %r\\nqueue: %q, drop: %d\""
par CampusNetwork.coreRouter.eth[1].mac sendRawBytes false
par CampusNetwork.coreRouter.eth[1].mac promiscuous false
par CampusNetwork.coreRouter.eth[1].mac duplexMode true
par CampusNetwork.coreRouter.eth[1].mac mtu 1500B
attr unit B
par CampusNetwork.coreRouter.eth[1].mac fcsMode "\"declared\""
attr enum declared,computed
par CampusNetwork.coreRouter.eth[1].mac stopOperationExtraTime -1s
attr unit s
par CampusNetwork.coreRouter.eth[1].mac stopOperationTimeout 2s
attr unit s
scalar CampusNetwork.coreRouter.eth[1].mac "simulated time" 2.151528
scalar CampusNetwork.coreRouter.eth[1].mac full-duplex 1
scalar CampusNetwork.coreRouter.eth[1].mac "frames/sec sent" 0
scalar CampusNetwork.coreRouter.eth[1].mac "frames/sec rcvd" 0
scalar CampusNetwork.coreRouter.eth[1].mac "bits/sec sent" 0
scalar CampusNetwork.coreRouter.eth[1].mac "bits/sec rcvd" 0
scalar CampusNetwork.coreRouter.eth[1].mac "rx channel idle (%)" 100
scalar CampusNetwork.coreRouter.eth[1].mac "rx channel utilization (%)" 0
scalar CampusNetwork.coreRouter.eth[1].mac txPk:count 0
attr interpolationmode none
attr recordingmode count
attr source packetSentToLower
attr title "packets transmitted, count"
scalar CampusNetwork.coreRouter.eth[1].mac txPk:sum(packetBytes) 0
attr interpolationmode none
attr recordingmode sum(packetBytes)
attr source packetSentToLower
attr title "packets transmitted, sum(packetBytes)"
scalar CampusNetwork.coreRouter.eth[1].mac packetReceivedFromUpper:count 0
attr interpolationmode none
attr recordingmode count
attr source packetReceivedFromUpper
attr title "packet bytes from higher layer, count"
scalar CampusNetwork.coreRouter.eth[1].mac packetReceivedFromUpper:sum(packetBytes) 0
attr interpolationmode none
attr recordingmode sum(packetBytes)
attr source packetReceivedFromUpper
attr title "packet bytes from higher layer, sum(packetBytes)"
scalar CampusNetwork.coreRouter.eth[1].mac passedUpPk:count 0
attr interpolationmode none
attr recordingmode count
attr source packetSentToUpper
attr title "packets passed to higher layer, count"
scalar CampusNetwork.coreRouter.eth[1].mac passedUpPk:sum(packetBytes) 0
attr interpolationmode none
attr recordingmode sum(packetBytes)
attr source packetSentToUpper
attr title "packets passed to higher layer, sum(packetBytes)"
scalar CampusNetwork.coreRouter.eth[1].mac packetDropIncorrectlyReceived:count 0
attr interpolationmode none
attr recordingmode count
attr source packetDropReasonIsIncorrectlyReceived(packetDropped)
attr title "packet drop: incorrectly received, count"
scalar CampusNetwork.coreRouter.eth[1].mac packetDropIncorrectlyReceived:sum(packetBytes) 0
attr interpolationmode none
attr recordingmode sum(packetBytes)
attr source packetDropReasonIsIncorrectlyReceived(packetDropped)
attr title "packet drop: incorrectly received, sum(packetBytes)"
scalar CampusNetwork.coreRouter.eth[1].mac packetDropInterfaceDown:count 0
attr interpolationmode none
attr recordingmode count
attr source packetDropReasonIsInterfaceDown(packetDropped)
attr title "packet drop: interface down, count"
scalar CampusNetwork.coreRouter.eth[1].mac packetDropInterfaceDown:sum(packetBytes) 0
attr interpolationmode none
attr recordingmode sum(packetBytes)
attr source packetDropReasonIsInterfaceDown(packetDropped)
attr title "packet drop: interface down, sum(packetBytes)"
scalar CampusNetwork.coreRouter.eth[1].mac packetDropNotAddressedToUs:count 0
attr interpolationmode none
attr recordingmode count
attr source packetDropReasonIsNotAddressedToUs(packetDropped)
attr title "packet drop: not addressed to us, count"
scalar CampusNetwork.coreRouter.eth[1].mac packetDropNotAddressedToUs:sum(packetBytes) 0
attr interpolationmode none
attr recordingmode sum(packetBytes)
attr source packetDropReasonIsNotAddressedToUs(packetDropped)
attr title "packet drop: not addressed to us, sum(packetBytes)"
scalar CampusNetwork.coreRouter.eth[1].mac rxPausePkUnits:count 0
attr interpolationmode none
attr recordingmode count
attr title "pause units received, count"
scalar CampusNetwork.coreRouter.eth[1].mac rxPausePkUnits:sum 0
attr interpolationmode none
attr recordingmode sum
attr title "pause units received, sum"
scalar CampusNetwork.coreRouter.eth[1].mac txPausePkUnits:count 0
attr interpolationmode none
attr recordingmode count
attr title "pause units sent, count"
scalar CampusNetwork.coreRouter.eth[1].mac txPausePkUnits:sum 0
attr interpolationmode none
attr recordingmode sum
attr title "pause units sent, sum"
scalar CampusNetwork.coreRouter.eth[1].mac rxPkOk:count 0
attr interpolationmode none
attr recordingmode count
attr source rxPkOk
attr title "packets received OK, count"
scalar CampusNetwork.coreRouter.eth[1].mac rxPkOk:sum(packetBytes) 0
attr interpolationmode none
attr recordingmode sum(packetBytes)
attr source rxPkOk
attr title "packets received OK, sum(packetBytes)"
par CampusNetwork.coreRouter.eth[1] typename "\"inet.linklayer.ethernet.EthernetInterface\""
par CampusNetwork.coreRouter.eth[1] displayStringTextFormat "\"%a (%i)\\n%m\""
par CampusNetwork.coreRouter.eth[1] recordPcap false
par CampusNetwork.coreRouter.eth[1] numPcapRecorders 0
par CampusNetwork.coreRouter.eth[1] interfaceTableModule "\"CampusNetwork.coreRouter.interfaceTable\""
par CampusNetwork.coreRouter.eth[1] protocol "\"ethernetmac\""
par CampusNetwork.coreRouter.eth[1] address "\"0A-AA-00-00-00-02\""
attr mutable ""
par CampusNetwork.coreRouter.eth[1] duplexMode true
par CampusNetwork.coreRouter.eth[1] csmacdSupport false
par CampusNetwork.coreRouter.eth[1] bitrate 0bps
attr unit bps
par CampusNetwork.coreRouter.eth[1] fcsMode "\"declared\""
attr enum declared,computed
scalar CampusNetwork.coreRouter.eth[1] packetDropInterfaceDown:count 0
attr interpolationmode none
attr recordingmode count
attr source packetDropReasonIsInterfaceDown(packetDropped)
attr title "packet drops: interface down, count"
scalar CampusNetwork.coreRouter.eth[1] packetDropInterfaceDown:sum(packetBytes) 0
attr interpolationmode none
attr recordingmode sum(packetBytes)
attr source packetDropReasonIsInterfaceDown(packetDropped)
attr title "packet drops: interface down, sum(packetBytes)"
scalar CampusNetwork.coreRouter.eth[1] packetDropNoCarrier:count 0
attr interpolationmode none
attr recordingmode count
attr source packetDropReasonIsNoCarrier(packetDropped)
attr title "packet drops: no carrier, count"
scalar CampusNetwork.coreRouter.eth[1] packetDropNoCarrier:sum(packetBytes) 0
attr interpolationmode none
attr recordingmode sum(packetBytes)
attr source packetDropReasonIsNoCarrier(packetDropped)
attr title "packet drops: no carrier, sum(packetBytes)"
par CampusNetwork.coreRouter.eth[2].mac.phys$o.channel typename "\"ned.IdealChannel\""
par CampusNetwork.coreRouter.eth[2].phys$i.channel typename "\"ned.IdealChannel\""
par CampusNetwork.coreRouter.eth[2].upperLayerIn.channel typename "\"ned.IdealChannel\""
par CampusNetwork.coreRouter.eth[2].mac.upperLayerOut.channel typename "\"ned.IdealChannel\""
par CampusNetwork.coreRouter.eth[2].queue typename "\"inet.linklayer.ethernet.common.EthernetQueue\""
par CampusNetwork.coreRouter.eth[2].queue displayStringTextFormat "\"contains %p pk (%l) pushed %u\\npulled %o removed %r dropped %d\""
par CampusNetwork.coreRouter.eth[2].queue packetCapacity 1000
par CampusNetwork.coreRouter.eth[2].queue dataCapacity -1b
attr unit b
par CampusNetwork.coreRouter.eth[2].queue dropperClass "\"inet::queueing::PacketAtCollectionEndDropper\""
par CampusNetwork.coreRouter.eth[2].queue comparatorClass "\"inet::EthernetFrameTypeComparator\""
par CampusNetwork.coreRouter.eth[2].queue bufferModule "\"\""
scalar CampusNetwork.coreRouter.eth[2].queue queueLength:last 0
attr autoWarmupFilter false
attr interpolationmode sample-hold
attr recordingmode last
attr source "warmup(atomic(constant0(packetPushEnded) + count(packetPushStarted) - count(packetPulled) - count(packetRemoved) - count(packetDropped)))"
attr title "queue length, last"
attr unit pk
scalar CampusNetwork.coreRouter.eth[2].queue queueLength:max 0
attr autoWarmupFilter false
attr interpolationmode sample-hold
attr recordingmode max
attr source "warmup(atomic(constant0(packetPushEnded) + count(packetPushStarted) - count(packetPulled) - count(packetRemoved) - count(packetDropped)))"
attr title "queue length, max"
attr unit pk
scalar CampusNetwork.coreRouter.eth[2].queue queueLength:timeavg 0
attr autoWarmupFilter false
attr interpolationmode sample-hold
attr recordingmode timeavg
attr source "warmup(atomic(constant0(packetPushEnded) + count(packetPushStarted) - count(packetPulled) - count(packetRemoved) - count(packetDropped)))"
attr title "queue length, timeavg"
attr unit pk
scalar CampusNetwork.coreRouter.eth[2].queue queueBitLength:last 0
attr autoWarmupFilter false
attr interpolationmode sample-hold
attr recordingmode last
attr source "warmup(atomic(constant0(packetPushEnded) + sum(packetLength(packetPushStarted)) - sum(packetLength(packetPulled)) - sum(packetLength(packetRemoved)) - sum(packetLength(packetDropped))))"
attr title "queue bit length, last"
attr unit b
scalar CampusNetwork.coreRouter.eth[2].queue queueBitLength:max 0
attr autoWarmupFilter false
attr interpolationmode sample-hold
attr recordingmode max
attr source "warmup(atomic(constant0(packetPushEnded) + sum(packetLength(packetPushStarted)) - sum(packetLength(packetPulled)) - sum(packetLength(packetRemoved)) - sum(packetLength(packetDropped))))"
attr title "queue bit length, max"
attr unit b
scalar CampusNetwork.coreRouter.eth[2].queue queueBitLength:timeavg 0
attr autoWarmupFilter false
attr interpolationmode sample-hold
attr recordingmode timeavg
attr source "warmup(atomic(constant0(packetPushEnded) + sum(packetLength(packetPushStarted)) - sum(packetLength(packetPulled)) - sum(packetLength(packetRemoved)) - sum(packetLength(packetDropped))))"
attr title "queue bit length, timeavg"
attr unit b
statistic CampusNetwork.coreRouter.eth[2].queue queueingTime:histogram
field count 0
field mean -nan(ind)
field stddev nan
field min nan
field max nan
field sum 0
field sqrsum 0
attr interpolationmode none
attr recordingmode histogram
attr source queueingTime(packetPulled)
attr title "queueing times"
attr unit s
bin	-inf	0
bin	0	0
bin	1	0
scalar CampusNetwork.coreRouter.eth[2].queue outgoingPackets:count 0
attr recordingmode count
attr source packetPulled
attr title "outgoing packets, count"
attr unit pk
scalar CampusNetwork.coreRouter.eth[2].queue outgoingPacketLengths:sum 0
attr interpolationmode none
attr recordingmode sum
attr source packetLength(packetPulled)
attr title "outgoing packet lengths, sum"
attr unit b
statistic CampusNetwork.coreRouter.eth[2].queue outgoingPacketLengths:histogram
field count 0
field mean -nan(ind)
field stddev nan
field min nan
field max nan
field sum 0
field sqrsum 0
attr interpolationmode none
attr recordingmode histogram
attr source packetLength(packetPulled)
attr title "outgoing packet lengths"
attr unit b
bin	-inf	0
bin	0	0
bin	1	0
statistic CampusNetwork.coreRouter.eth[2].queue flowQueueingTime:histogram
field count 0
field mean -nan(ind)
field stddev nan
field min nan
field max nan
field sum 0
field sqrsum 0
attr interpolationmode none
attr recordingmode histogram
attr source queueingTime(demuxFlow(packetPulled))
attr title "flow queueing times"
attr unit s
bin	-inf	0
bin	0	0
bin	1	0
scalar CampusNetwork.coreRouter.eth[2].queue incomingPackets:count 0
attr recordingmode count
attr source packetPushStarted
attr title "incoming packets, count"
attr unit pk
scalar CampusNetwork.coreRouter.eth[2].queue incomingPacketLengths:sum 0
attr interpolationmode none
attr recordingmode sum
attr source packetLength(packetPushStarted)
attr title "incoming packet lengths, sum"
attr unit b
statistic CampusNetwork.coreRouter.eth[2].queue incomingPacketLengths:histogram
field count 0
field mean -nan(ind)
field stddev nan
field min nan
field max nan
field sum 0
field sqrsum 0
attr interpolationmode none
attr recordingmode histogram
attr source packetLength(packetPushStarted)
attr title "incoming packet lengths"
attr unit b
bin	-inf	0
bin	0	0
bin	1	0
scalar CampusNetwork.coreRouter.eth[2].queue droppedPacketsQueueOverflow:count 0
attr interpolationmode none
attr recordingmode count
attr source packetDropReasonIsQueueOverflow(packetDropped)
attr title "dropped packets: queue overflow, count"
attr unit pk
scalar CampusNetwork.coreRouter.eth[2].queue droppedPacketLengthsQueueOverflow:sum 0
attr interpolationmode none
attr recordingmode sum
attr source packetLength(packetDropReasonIsQueueOverflow(packetDropped))
attr title "dropped packet lengths: queue overflow, sum"
attr unit b
par CampusNetwork.coreRouter.eth[2].mac typename "\"inet.linklayer.ethernet.basic.EthernetMac\""
par CampusNetwork.coreRouter.eth[2].mac interfaceTableModule "\"CampusNetwork.coreRouter.interfaceTable\""
par CampusNetwork.coreRouter.eth[2].mac displayStringTextFormat "\"rate: %b\\nsent: %s, rcvd: %r\\nqueue: %q, drop: %d\""
par CampusNetwork.coreRouter.eth[2].mac sendRawBytes false
par CampusNetwork.coreRouter.eth[2].mac promiscuous false
par CampusNetwork.coreRouter.eth[2].mac duplexMode true
par CampusNetwork.coreRouter.eth[2].mac mtu 1500B
attr unit B
par CampusNetwork.coreRouter.eth[2].mac fcsMode "\"declared\""
attr enum declared,computed
par CampusNetwork.coreRouter.eth[2].mac stopOperationExtraTime -1s
attr unit s
par CampusNetwork.coreRouter.eth[2].mac stopOperationTimeout 2s
attr unit s
scalar CampusNetwork.coreRouter.eth[2].mac "simulated time" 2.151528
scalar CampusNetwork.coreRouter.eth[2].mac full-duplex 1
scalar CampusNetwork.coreRouter.eth[2].mac "frames/sec sent" 0
scalar CampusNetwork.coreRouter.eth[2].mac "frames/sec rcvd" 0
scalar CampusNetwork.coreRouter.eth[2].mac "bits/sec sent" 0
scalar CampusNetwork.coreRouter.eth[2].mac "bits/sec rcvd" 0
scalar CampusNetwork.coreRouter.eth[2].mac "rx channel idle (%)" 100
scalar CampusNetwork.coreRouter.eth[2].mac "rx channel utilization (%)" 0
scalar CampusNetwork.coreRouter.eth[2].mac txPk:count 0
attr interpolationmode none
attr recordingmode count
attr source packetSentToLower
attr title "packets transmitted, count"
scalar CampusNetwork.coreRouter.eth[2].mac txPk:sum(packetBytes) 0
attr interpolationmode none
attr recordingmode sum(packetBytes)
attr source packetSentToLower
attr title "packets transmitted, sum(packetBytes)"
scalar CampusNetwork.coreRouter.eth[2].mac packetReceivedFromUpper:count 0
attr interpolationmode none
attr recordingmode count
attr source packetReceivedFromUpper
attr title "packet bytes from higher layer, count"
scalar CampusNetwork.coreRouter.eth[2].mac packetReceivedFromUpper:sum(packetBytes) 0
attr interpolationmode none
attr recordingmode sum(packetBytes)
attr source packetReceivedFromUpper
attr title "packet bytes from higher layer, sum(packetBytes)"
scalar CampusNetwork.coreRouter.eth[2].mac passedUpPk:count 0
attr interpolationmode none
attr recordingmode count
attr source packetSentToUpper
attr title "packets passed to higher layer, count"
scalar CampusNetwork.coreRouter.eth[2].mac passedUpPk:sum(packetBytes) 0
attr interpolationmode none
attr recordingmode sum(packetBytes)
attr source packetSentToUpper
attr title "packets passed to higher layer, sum(packetBytes)"
scalar CampusNetwork.coreRouter.eth[2].mac packetDropIncorrectlyReceived:count 0
attr interpolationmode none
attr recordingmode count
attr source packetDropReasonIsIncorrectlyReceived(packetDropped)
attr title "packet drop: incorrectly received, count"
scalar CampusNetwork.coreRouter.eth[2].mac packetDropIncorrectlyReceived:sum(packetBytes) 0
attr interpolationmode none
attr recordingmode sum(packetBytes)
attr source packetDropReasonIsIncorrectlyReceived(packetDropped)
attr title "packet drop: incorrectly received, sum(packetBytes)"
scalar CampusNetwork.coreRouter.eth[2].mac packetDropInterfaceDown:count 0
attr interpolationmode none
attr recordingmode count
attr source packetDropReasonIsInterfaceDown(packetDropped)
attr title "packet drop: interface down, count"
scalar CampusNetwork.coreRouter.eth[2].mac packetDropInterfaceDown:sum(packetBytes) 0
attr interpolationmode none
attr recordingmode sum(packetBytes)
attr source packetDropReasonIsInterfaceDown(packetDropped)
attr title "packet drop: interface down, sum(packetBytes)"
scalar CampusNetwork.coreRouter.eth[2].mac packetDropNotAddressedToUs:count 0
attr interpolationmode none
attr recordingmode count
attr source packetDropReasonIsNotAddressedToUs(packetDropped)
attr title "packet drop: not addressed to us, count"
scalar CampusNetwork.coreRouter.eth[2].mac packetDropNotAddressedToUs:sum(packetBytes) 0
attr interpolationmode none
attr recordingmode sum(packetBytes)
attr source packetDropReasonIsNotAddressedToUs(packetDropped)
attr title "packet drop: not addressed to us, sum(packetBytes)"
scalar CampusNetwork.coreRouter.eth[2].mac rxPausePkUnits:count 0
attr interpolationmode none
attr recordingmode count
attr title "pause units received, count"
scalar CampusNetwork.coreRouter.eth[2].mac rxPausePkUnits:sum 0
attr interpolationmode none
attr recordingmode sum
attr title "pause units received, sum"
scalar CampusNetwork.coreRouter.eth[2].mac txPausePkUnits:count 0
attr interpolationmode none
attr recordingmode count
attr title "pause units sent, count"
scalar CampusNetwork.coreRouter.eth[2].mac txPausePkUnits:sum 0
attr interpolationmode none
attr recordingmode sum
attr title "pause units sent, sum"
scalar CampusNetwork.coreRouter.eth[2].mac rxPkOk:count 0
attr interpolationmode none
attr recordingmode count
attr source rxPkOk
attr title "packets received OK, count"
scalar CampusNetwork.coreRouter.eth[2].mac rxPkOk:sum(packetBytes) 0
attr interpolationmode none
attr recordingmode sum(packetBytes)
attr source rxPkOk
attr title "packets received OK, sum(packetBytes)"
par CampusNetwork.coreRouter.eth[2] typename "\"inet.linklayer.ethernet.EthernetInterface\""
par CampusNetwork.coreRouter.eth[2] displayStringTextFormat "\"%a (%i)\\n%m\""
par CampusNetwork.coreRouter.eth[2] recordPcap false
par CampusNetwork.coreRouter.eth[2] numPcapRecorders 0
par CampusNetwork.coreRouter.eth[2] interfaceTableModule "\"CampusNetwork.coreRouter.interfaceTable\""
par CampusNetwork.coreRouter.eth[2] protocol "\"ethernetmac\""
par CampusNetwork.coreRouter.eth[2] address "\"0A-AA-00-00-00-03\""
attr mutable ""
par CampusNetwork.coreRouter.eth[2] duplexMode true
par CampusNetwork.coreRouter.eth[2] csmacdSupport false
par CampusNetwork.coreRouter.eth[2] bitrate 0bps
attr unit bps
par CampusNetwork.coreRouter.eth[2] fcsMode "\"declared\""
attr enum declared,computed
scalar CampusNetwork.coreRouter.eth[2] packetDropInterfaceDown:count 0
attr interpolationmode none
attr recordingmode count
attr source packetDropReasonIsInterfaceDown(packetDropped)
attr title "packet drops: interface down, count"
scalar CampusNetwork.coreRouter.eth[2] packetDropInterfaceDown:sum(packetBytes) 0
attr interpolationmode none
attr recordingmode sum(packetBytes)
attr source packetDropReasonIsInterfaceDown(packetDropped)
attr title "packet drops: interface down, sum(packetBytes)"
scalar CampusNetwork.coreRouter.eth[2] packetDropNoCarrier:count 0
attr interpolationmode none
attr recordingmode count
attr source packetDropReasonIsNoCarrier(packetDropped)
attr title "packet drops: no carrier, count"
scalar CampusNetwork.coreRouter.eth[2] packetDropNoCarrier:sum(packetBytes) 0
attr interpolationmode none
attr recordingmode sum(packetBytes)
attr source packetDropReasonIsNoCarrier(packetDropped)
attr title "packet drops: no carrier, sum(packetBytes)"
par CampusNetwork.coreRouter.eth[3].mac.phys$o.channel typename "\"ned.IdealChannel\""
par CampusNetwork.coreRouter.eth[3].phys$i.channel typename "\"ned.IdealChannel\""
par CampusNetwork.coreRouter.eth[3].upperLayerIn.channel typename "\"ned.IdealChannel\""
par CampusNetwork.coreRouter.eth[3].mac.upperLayerOut.channel typename "\"ned.IdealChannel\""
par CampusNetwork.coreRouter.eth[3].queue typename "\"inet.linklayer.ethernet.common.EthernetQueue\""
par CampusNetwork.coreRouter.eth[3].queue displayStringTextFormat "\"contains %p pk (%l) pushed %u\\npulled %o removed %r dropped %d\""
par CampusNetwork.coreRouter.eth[3].queue packetCapacity 1000
par CampusNetwork.coreRouter.eth[3].queue dataCapacity -1b
attr unit b
par CampusNetwork.coreRouter.eth[3].queue dropperClass "\"inet::queueing::PacketAtCollectionEndDropper\""
par CampusNetwork.coreRouter.eth[3].queue comparatorClass "\"inet::EthernetFrameTypeComparator\""
par CampusNetwork.coreRouter.eth[3].queue bufferModule "\"\""
scalar CampusNetwork.coreRouter.eth[3].queue queueLength:last 0
attr autoWarmupFilter false
attr interpolationmode sample-hold
attr recordingmode last
attr source "warmup(atomic(constant0(packetPushEnded) + count(packetPushStarted) - count(packetPulled) - count(packetRemoved) - count(packetDropped)))"
attr title "queue length, last"
attr unit pk
scalar CampusNetwork.coreRouter.eth[3].queue queueLength:max 0
attr autoWarmupFilter false
attr interpolationmode sample-hold
attr recordingmode max
attr source "warmup(atomic(constant0(packetPushEnded) + count(packetPushStarted) - count(packetPulled) - count(packetRemoved) - count(packetDropped)))"
attr title "queue length, max"
attr unit pk
scalar CampusNetwork.coreRouter.eth[3].queue queueLength:timeavg 0
attr autoWarmupFilter false
attr interpolationmode sample-hold
attr recordingmode timeavg
attr source "warmup(atomic(constant0(packetPushEnded) + count(packetPushStarted) - count(packetPulled) - count(packetRemoved) - count(packetDropped)))"
attr title "queue length, timeavg"
attr unit pk
scalar CampusNetwork.coreRouter.eth[3].queue queueBitLength:last 0
attr autoWarmupFilter false
attr interpolationmode sample-hold
attr recordingmode last
attr source "warmup(atomic(constant0(packetPushEnded) + sum(packetLength(packetPushStarted)) - sum(packetLength(packetPulled)) - sum(packetLength(packetRemoved)) - sum(packetLength(packetDropped))))"
attr title "queue bit length, last"
attr unit b
scalar CampusNetwork.coreRouter.eth[3].queue queueBitLength:max 0
attr autoWarmupFilter false
attr interpolationmode sample-hold
attr recordingmode max
attr source "warmup(atomic(constant0(packetPushEnded) + sum(packetLength(packetPushStarted)) - sum(packetLength(packetPulled)) - sum(packetLength(packetRemoved)) - sum(packetLength(packetDropped))))"
attr title "queue bit length, max"
attr unit b
scalar CampusNetwork.coreRouter.eth[3].queue queueBitLength:timeavg 0
attr autoWarmupFilter false
attr interpolationmode sample-hold
attr recordingmode timeavg
attr source "warmup(atomic(constant0(packetPushEnded) + sum(packetLength(packetPushStarted)) - sum(packetLength(packetPulled)) - sum(packetLength(packetRemoved)) - sum(packetLength(packetDropped))))"
attr title "queue bit length, timeavg"
attr unit b
statistic CampusNetwork.coreRouter.eth[3].queue queueingTime:histogram
field count 0
field mean -nan(ind)
field stddev nan
field min nan
field max nan
field sum 0
field sqrsum 0
attr interpolationmode none
attr recordingmode histogram
attr source queueingTime(packetPulled)
attr title "queueing times"
attr unit s
bin	-inf	0
bin	0	0
bin	1	0
scalar CampusNetwork.coreRouter.eth[3].queue outgoingPackets:count 0
attr recordingmode count
attr source packetPulled
attr title "outgoing packets, count"
attr unit pk
scalar CampusNetwork.coreRouter.eth[3].queue outgoingPacketLengths:sum 0
attr interpolationmode none
attr recordingmode sum
attr source packetLength(packetPulled)
attr title "outgoing packet lengths, sum"
attr unit b
statistic CampusNetwork.coreRouter.eth[3].queue outgoingPacketLengths:histogram
field count 0
field mean -nan(ind)
field stddev nan
field min nan
field max nan
field sum 0
field sqrsum 0
attr interpolationmode none
attr recordingmode histogram
attr source packetLength(packetPulled)
attr title "outgoing packet lengths"
attr unit b
bin	-inf	0
bin	0	0
bin	1	0
statistic CampusNetwork.coreRouter.eth[3].queue flowQueueingTime:histogram
field count 0
field mean -nan(ind)
field stddev nan
field min nan
field max nan
field sum 0
field sqrsum 0
attr interpolationmode none
attr recordingmode histogram
attr source queueingTime(demuxFlow(packetPulled))
attr title "flow queueing times"
attr unit s
bin	-inf	0
bin	0	0
bin	1	0
scalar CampusNetwork.coreRouter.eth[3].queue incomingPackets:count 0
attr recordingmode count
attr source packetPushStarted
attr title "incoming packets, count"
attr unit pk
scalar CampusNetwork.coreRouter.eth[3].queue incomingPacketLengths:sum 0
attr interpolationmode none
attr recordingmode sum
attr source packetLength(packetPushStarted)
attr title "incoming packet lengths, sum"
attr unit b
statistic CampusNetwork.coreRouter.eth[3].queue incomingPacketLengths:histogram
field count 0
field mean -nan(ind)
field stddev nan
field min nan
field max nan
field sum 0
field sqrsum 0
attr interpolationmode none
attr recordingmode histogram
attr source packetLength(packetPushStarted)
attr title "incoming packet lengths"
attr unit b
bin	-inf	0
bin	0	0
bin	1	0
scalar CampusNetwork.coreRouter.eth[3].queue droppedPacketsQueueOverflow:count 0
attr interpolationmode none
attr recordingmode count
attr source packetDropReasonIsQueueOverflow(packetDropped)
attr title "dropped packets: queue overflow, count"
attr unit pk
scalar CampusNetwork.coreRouter.eth[3].queue droppedPacketLengthsQueueOverflow:sum 0
attr interpolationmode none
attr recordingmode sum
attr source packetLength(packetDropReasonIsQueueOverflow(packetDropped))
attr title "dropped packet lengths: queue overflow, sum"
attr unit b
par CampusNetwork.coreRouter.eth[3].mac typename "\"inet.linklayer.ethernet.basic.EthernetMac\""
par CampusNetwork.coreRouter.eth[3].mac interfaceTableModule "\"CampusNetwork.coreRouter.interfaceTable\""
par CampusNetwork.coreRouter.eth[3].mac displayStringTextFormat "\"rate: %b\\nsent: %s, rcvd: %r\\nqueue: %q, drop: %d\""
par CampusNetwork.coreRouter.eth[3].mac sendRawBytes false
par CampusNetwork.coreRouter.eth[3].mac promiscuous false
par CampusNetwork.coreRouter.eth[3].mac duplexMode true
par CampusNetwork.coreRouter.eth[3].mac mtu 1500B
attr unit B
par CampusNetwork.coreRouter.eth[3].mac fcsMode "\"declared\""
attr enum declared,computed
par CampusNetwork.coreRouter.eth[3].mac stopOperationExtraTime -1s
attr unit s
par CampusNetwork.coreRouter.eth[3].mac stopOperationTimeout 2s
attr unit s
scalar CampusNetwork.coreRouter.eth[3].mac "simulated time" 2.151528
scalar CampusNetwork.coreRouter.eth[3].mac full-duplex 1
scalar CampusNetwork.coreRouter.eth[3].mac "frames/sec sent" 0
scalar CampusNetwork.coreRouter.eth[3].mac "frames/sec rcvd" 0
scalar CampusNetwork.coreRouter.eth[3].mac "bits/sec sent" 0
scalar CampusNetwork.coreRouter.eth[3].mac "bits/sec rcvd" 0
scalar CampusNetwork.coreRouter.eth[3].mac "rx channel idle (%)" 100
scalar CampusNetwork.coreRouter.eth[3].mac "rx channel utilization (%)" 0
scalar CampusNetwork.coreRouter.eth[3].mac txPk:count 0
attr interpolationmode none
attr recordingmode count
attr source packetSentToLower
attr title "packets transmitted, count"
scalar CampusNetwork.coreRouter.eth[3].mac txPk:sum(packetBytes) 0
attr interpolationmode none
attr recordingmode sum(packetBytes)
attr source packetSentToLower
attr title "packets transmitted, sum(packetBytes)"
scalar CampusNetwork.coreRouter.eth[3].mac packetReceivedFromUpper:count 0
attr interpolationmode none
attr recordingmode count
attr source packetReceivedFromUpper
attr title "packet bytes from higher layer, count"
scalar CampusNetwork.coreRouter.eth[3].mac packetReceivedFromUpper:sum(packetBytes) 0
attr interpolationmode none
attr recordingmode sum(packetBytes)
attr source packetReceivedFromUpper
attr title "packet bytes from higher layer, sum(packetBytes)"
scalar CampusNetwork.coreRouter.eth[3].mac passedUpPk:count 0
attr interpolationmode none
attr recordingmode count
attr source packetSentToUpper
attr title "packets passed to higher layer, count"
scalar CampusNetwork.coreRouter.eth[3].mac passedUpPk:sum(packetBytes) 0
attr interpolationmode none
attr recordingmode sum(packetBytes)
attr source packetSentToUpper
attr title "packets passed to higher layer, sum(packetBytes)"
scalar CampusNetwork.coreRouter.eth[3].mac packetDropIncorrectlyReceived:count 0
attr interpolationmode none
attr recordingmode count
attr source packetDropReasonIsIncorrectlyReceived(packetDropped)
attr title "packet drop: incorrectly received, count"
scalar CampusNetwork.coreRouter.eth[3].mac packetDropIncorrectlyReceived:sum(packetBytes) 0
attr interpolationmode none
attr recordingmode sum(packetBytes)
attr source packetDropReasonIsIncorrectlyReceived(packetDropped)
attr title "packet drop: incorrectly received, sum(packetBytes)"
scalar CampusNetwork.coreRouter.eth[3].mac packetDropInterfaceDown:count 0
attr interpolationmode none
attr recordingmode count
attr source packetDropReasonIsInterfaceDown(packetDropped)
attr title "packet drop: interface down, count"
scalar CampusNetwork.coreRouter.eth[3].mac packetDropInterfaceDown:sum(packetBytes) 0
attr interpolationmode none
attr recordingmode sum(packetBytes)
attr source packetDropReasonIsInterfaceDown(packetDropped)
attr title "packet drop: interface down, sum(packetBytes)"
scalar CampusNetwork.coreRouter.eth[3].mac packetDropNotAddressedToUs:count 0
attr interpolationmode none
attr recordingmode count
attr source packetDropReasonIsNotAddressedToUs(packetDropped)
attr title "packet drop: not addressed to us, count"
scalar CampusNetwork.coreRouter.eth[3].mac packetDropNotAddressedToUs:sum(packetBytes) 0
attr interpolationmode none
attr recordingmode sum(packetBytes)
attr source packetDropReasonIsNotAddressedToUs(packetDropped)
attr title "packet drop: not addressed to us, sum(packetBytes)"
scalar CampusNetwork.coreRouter.eth[3].mac rxPausePkUnits:count 0
attr interpolationmode none
attr recordingmode count
attr title "pause units received, count"
scalar CampusNetwork.coreRouter.eth[3].mac rxPausePkUnits:sum 0
attr interpolationmode none
attr recordingmode sum
attr title "pause units received, sum"
scalar CampusNetwork.coreRouter.eth[3].mac txPausePkUnits:count 0
attr interpolationmode none
attr recordingmode count
attr title "pause units sent, count"
scalar CampusNetwork.coreRouter.eth[3].mac txPausePkUnits:sum 0
attr interpolationmode none
attr recordingmode sum
attr title "pause units sent, sum"
scalar CampusNetwork.coreRouter.eth[3].mac rxPkOk:count 0
attr interpolationmode none
attr recordingmode count
attr source rxPkOk
attr title "packets received OK, count"
scalar CampusNetwork.coreRouter.eth[3].mac rxPkOk:sum(packetBytes) 0
attr interpolationmode none
attr recordingmode sum(packetBytes)
attr source rxPkOk
attr title "packets received OK, sum(packetBytes)"
par CampusNetwork.coreRouter.eth[3] typename "\"inet.linklayer.ethernet.EthernetInterface\""
par CampusNetwork.coreRouter.eth[3] displayStringTextFormat "\"%a (%i)\\n%m\""
par CampusNetwork.coreRouter.eth[3] recordPcap false
par CampusNetwork.coreRouter.eth[3] numPcapRecorders 0
par CampusNetwork.coreRouter.eth[3] interfaceTableModule "\"CampusNetwork.coreRouter.interfaceTable\""
par CampusNetwork.coreRouter.eth[3] protocol "\"ethernetmac\""
par CampusNetwork.coreRouter.eth[3] address "\"0A-AA-00-00-00-04\""
attr mutable ""
par CampusNetwork.coreRouter.eth[3] duplexMode true
par CampusNetwork.coreRouter.eth[3] csmacdSupport false
par CampusNetwork.coreRouter.eth[3] bitrate 0bps
attr unit bps
par CampusNetwork.coreRouter.eth[3] fcsMode "\"declared\""
attr enum declared,computed
scalar CampusNetwork.coreRouter.eth[3] packetDropInterfaceDown:count 0
attr interpolationmode none
attr recordingmode count
attr source packetDropReasonIsInterfaceDown(packetDropped)
attr title "packet drops: interface down, count"
scalar CampusNetwork.coreRouter.eth[3] packetDropInterfaceDown:sum(packetBytes) 0
attr interpolationmode none
attr recordingmode sum(packetBytes)
attr source packetDropReasonIsInterfaceDown(packetDropped)
attr title "packet drops: interface down, sum(packetBytes)"
scalar CampusNetwork.coreRouter.eth[3] packetDropNoCarrier:count 0
attr interpolationmode none
attr recordingmode count
attr source packetDropReasonIsNoCarrier(packetDropped)
attr title "packet drops: no carrier, count"
scalar CampusNetwork.coreRouter.eth[3] packetDropNoCarrier:sum(packetBytes) 0
attr interpolationmode none
attr recordingmode sum(packetBytes)
attr source packetDropReasonIsNoCarrier(packetDropped)
attr title "packet drops: no carrier, sum(packetBytes)"
par CampusNetwork.coreRouter.eth[4].mac.phys$o.channel typename "\"ned.IdealChannel\""
par CampusNetwork.coreRouter.eth[4].phys$i.channel typename "\"ned.IdealChannel\""
par CampusNetwork.coreRouter.eth[4].upperLayerIn.channel typename "\"ned.IdealChannel\""
par CampusNetwork.coreRouter.eth[4].mac.upperLayerOut.channel typename "\"ned.IdealChannel\""
par CampusNetwork.coreRouter.eth[4].queue typename "\"inet.linklayer.ethernet.common.EthernetQueue\""
par CampusNetwork.coreRouter.eth[4].queue displayStringTextFormat "\"contains %p pk (%l) pushed %u\\npulled %o removed %r dropped %d\""
par CampusNetwork.coreRouter.eth[4].queue packetCapacity 1000
par CampusNetwork.coreRouter.eth[4].queue dataCapacity -1b
attr unit b
par CampusNetwork.coreRouter.eth[4].queue dropperClass "\"inet::queueing::PacketAtCollectionEndDropper\""
par CampusNetwork.coreRouter.eth[4].queue comparatorClass "\"inet::EthernetFrameTypeComparator\""
par CampusNetwork.coreRouter.eth[4].queue bufferModule "\"\""
scalar CampusNetwork.coreRouter.eth[4].queue queueLength:last 0
attr autoWarmupFilter false
attr interpolationmode sample-hold
attr recordingmode last
attr source "warmup(atomic(constant0(packetPushEnded) + count(packetPushStarted) - count(packetPulled) - count(packetRemoved) - count(packetDropped)))"
[...]
attr recordingmode sum(packetBytes)
attr source packetDropReasonIsIncorrectlyReceived(packetDropped)
attr title "packet drop: incorrectly received, sum(packetBytes)"
scalar CampusNetwork.adminHost3.eth[0].mac packetDropInterfaceDown:count 0
attr interpolationmode none
attr recordingmode count
attr source packetDropReasonIsInterfaceDown(packetDropped)
attr title "packet drop: interface down, count"
scalar CampusNetwork.adminHost3.eth[0].mac packetDropInterfaceDown:sum(packetBytes) 0
attr interpolationmode none
attr recordingmode sum(packetBytes)
attr source packetDropReasonIsInterfaceDown(packetDropped)
attr title "packet drop: interface down, sum(packetBytes)"
scalar CampusNetwork.adminHost3.eth[0].mac packetDropNotAddressedToUs:count 0
attr interpolationmode none
attr recordingmode count
attr source packetDropReasonIsNotAddressedToUs(packetDropped)
attr title "packet drop: not addressed to us, count"
scalar CampusNetwork.adminHost3.eth[0].mac packetDropNotAddressedToUs:sum(packetBytes) 0
attr interpolationmode none
attr recordingmode sum(packetBytes)
attr source packetDropReasonIsNotAddressedToUs(packetDropped)
attr title "packet drop: not addressed to us, sum(packetBytes)"
scalar CampusNetwork.adminHost3.eth[0].mac rxPausePkUnits:count 0
attr interpolationmode none
attr recordingmode count
attr title "pause units received, count"
scalar CampusNetwork.adminHost3.eth[0].mac rxPausePkUnits:sum 0
attr interpolationmode none
attr recordingmode sum
attr title "pause units received, sum"
scalar CampusNetwork.adminHost3.eth[0].mac txPausePkUnits:count 0
attr interpolationmode none
attr recordingmode count
attr title "pause units sent, count"
scalar CampusNetwork.adminHost3.eth[0].mac txPausePkUnits:sum 0
attr interpolationmode none
attr recordingmode sum
attr title "pause units sent, sum"
scalar CampusNetwork.adminHost3.eth[0].mac rxPkOk:count 24
attr interpolationmode none
attr recordingmode count
attr source rxPkOk
attr title "packets received OK, count"
scalar CampusNetwork.adminHost3.eth[0].mac rxPkOk:sum(packetBytes) 1766
attr interpolationmode none
attr recordingmode sum(packetBytes)
attr source rxPkOk
attr title "packets received OK, sum(packetBytes)"
par CampusNetwork.adminHost3.eth[0] typename "\"inet.linklayer.ethernet.EthernetInterface\""
par CampusNetwork.adminHost3.eth[0] displayStringTextFormat "\"%a (%i)\\n%m\""
par CampusNetwork.adminHost3.eth[0] recordPcap false
par CampusNetwork.adminHost3.eth[0] numPcapRecorders 0
par CampusNetwork.adminHost3.eth[0] interfaceTableModule "\"CampusNetwork.adminHost3.interfaceTable\""
par CampusNetwork.adminHost3.eth[0] protocol "\"ethernetmac\""
par CampusNetwork.adminHost3.eth[0] address "\"0A-AA-00-00-00-24\""
attr mutable ""
par CampusNetwork.adminHost3.eth[0] duplexMode true
par CampusNetwork.adminHost3.eth[0] csmacdSupport false
par CampusNetwork.adminHost3.eth[0] bitrate 0bps
attr unit bps
par CampusNetwork.adminHost3.eth[0] fcsMode "\"declared\""
attr enum declared,computed
scalar CampusNetwork.adminHost3.eth[0] packetDropInterfaceDown:count 0
attr interpolationmode none
attr recordingmode count
attr source packetDropReasonIsInterfaceDown(packetDropped)
attr title "packet drops: interface down, count"
scalar CampusNetwork.adminHost3.eth[0] packetDropInterfaceDown:sum(packetBytes) 0
attr interpolationmode none
attr recordingmode sum(packetBytes)
attr source packetDropReasonIsInterfaceDown(packetDropped)
attr title "packet drops: interface down, sum(packetBytes)"
scalar CampusNetwork.adminHost3.eth[0] packetDropNoCarrier:count 0
attr interpolationmode none
attr recordingmode count
attr source packetDropReasonIsNoCarrier(packetDropped)
attr title "packet drops: no carrier, count"
scalar CampusNetwork.adminHost3.eth[0] packetDropNoCarrier:sum(packetBytes) 0
attr interpolationmode none
attr recordingmode sum(packetBytes)
attr source packetDropReasonIsNoCarrier(packetDropped)
attr title "packet drops: no carrier, sum(packetBytes)"
par CampusNetwork.adminHost3.ipv4.transportIn.channel typename "\"ned.IdealChannel\""
par CampusNetwork.adminHost3.ipv4.up.out[0].channel typename "\"ned.IdealChannel\""
par CampusNetwork.adminHost3.ipv4.lp.out[2].channel typename "\"ned.IdealChannel\""
par CampusNetwork.adminHost3.ipv4.ifIn.channel typename "\"ned.IdealChannel\""
par CampusNetwork.adminHost3.ipv4.configurator typename "\"inet.networklayer.configurator.ipv4.Ipv4NodeConfigurator\""
par CampusNetwork.adminHost3.ipv4.configurator interfaceTableModule "\"CampusNetwork.adminHost3.interfaceTable\""
par CampusNetwork.adminHost3.ipv4.configurator routingTableModule "\"CampusNetwork.adminHost3.ipv4.routingTable\""
par CampusNetwork.adminHost3.ipv4.configurator networkConfiguratorModule "\"configurator\""
par CampusNetwork.adminHost3.ipv4.configurator configureRoutingTable true
par CampusNetwork.adminHost3.ipv4.routingTable typename "\"inet.networklayer.ipv4.Ipv4RoutingTable\""
par CampusNetwork.adminHost3.ipv4.routingTable interfaceTableModule "\"CampusNetwork.adminHost3.interfaceTable\""
par CampusNetwork.adminHost3.ipv4.routingTable routerId "\"auto\""
par CampusNetwork.adminHost3.ipv4.routingTable netmaskRoutes "\"*\""
par CampusNetwork.adminHost3.ipv4.routingTable forwarding false
par CampusNetwork.adminHost3.ipv4.routingTable multicastForwarding false
par CampusNetwork.adminHost3.ipv4.routingTable useAdminDist false
par CampusNetwork.adminHost3.ipv4.routingTable routingFile "\"\""
par CampusNetwork.adminHost3.ipv4.natTable typename "\"inet.networklayer.ipv4.Ipv4NatTable\""
par CampusNetwork.adminHost3.ipv4.natTable networkProtocolModule "\"^.ip\""
par CampusNetwork.adminHost3.ipv4.natTable config "<config/> at content:1"
par CampusNetwork.adminHost3.ipv4.up typename "\"inet.common.MessageDispatcher\""
par CampusNetwork.adminHost3.ipv4.up displayStringTextFormat "\"processed %p pk (%l)\""
par CampusNetwork.adminHost3.ipv4.up forwardServiceRegistration true
par CampusNetwork.adminHost3.ipv4.up forwardProtocolRegistration true
par CampusNetwork.adminHost3.ipv4.igmp typename "\"inet.networklayer.ipv4.Igmpv2\""
par CampusNetwork.adminHost3.ipv4.igmp interfaceTableModule "\"CampusNetwork.adminHost3.interfaceTable\""
par CampusNetwork.adminHost3.ipv4.igmp routingTableModule "\"CampusNetwork.adminHost3.ipv4.routingTable\""
par CampusNetwork.adminHost3.ipv4.igmp crcMode "\"declared\""
attr enum declared,computed
par CampusNetwork.adminHost3.ipv4.igmp enabled true
par CampusNetwork.adminHost3.ipv4.igmp robustnessVariable 2
par CampusNetwork.adminHost3.ipv4.igmp queryInterval 125s
attr unit s
par CampusNetwork.adminHost3.ipv4.igmp queryResponseInterval 10s
attr unit s
par CampusNetwork.adminHost3.ipv4.igmp groupMembershipInterval 260s
attr unit s
par CampusNetwork.adminHost3.ipv4.igmp otherQuerierPresentInterval 255s
attr unit s
par CampusNetwork.adminHost3.ipv4.igmp startupQueryInterval 31.25s
attr unit s
par CampusNetwork.adminHost3.ipv4.igmp startupQueryCount 2
par CampusNetwork.adminHost3.ipv4.igmp lastMemberQueryInterval 1s
attr unit s
par CampusNetwork.adminHost3.ipv4.igmp lastMemberQueryCount 2
par CampusNetwork.adminHost3.ipv4.igmp unsolicitedReportInterval 10s
attr unit s
par CampusNetwork.adminHost3.ipv4.icmp typename "\"inet.networklayer.ipv4.Icmp\""
par CampusNetwork.adminHost3.ipv4.icmp interfaceTableModule "\"CampusNetwork.adminHost3.interfaceTable\""
par CampusNetwork.adminHost3.ipv4.icmp routingTableModule "\"CampusNetwork.adminHost3.ipv4.routingTable\""
par CampusNetwork.adminHost3.ipv4.icmp crcMode "\"declared\""
attr enum declared,computed
attr mutable ""
par CampusNetwork.adminHost3.ipv4.icmp quoteLength 8B
attr mutable ""
attr unit B
par CampusNetwork.adminHost3.ipv4.mp typename "\"inet.common.MessageDispatcher\""
par CampusNetwork.adminHost3.ipv4.mp displayStringTextFormat "\"processed %p pk (%l)\""
par CampusNetwork.adminHost3.ipv4.mp forwardServiceRegistration true
par CampusNetwork.adminHost3.ipv4.mp forwardProtocolRegistration true
par CampusNetwork.adminHost3.ipv4.ip typename "\"inet.networklayer.ipv4.Ipv4\""
par CampusNetwork.adminHost3.ipv4.ip interfaceTableModule "\"CampusNetwork.adminHost3.interfaceTable\""
par CampusNetwork.adminHost3.ipv4.ip routingTableModule "\"CampusNetwork.adminHost3.ipv4.routingTable\""
par CampusNetwork.adminHost3.ipv4.ip arpModule "\"CampusNetwork.adminHost3.ipv4.arp\""
par CampusNetwork.adminHost3.ipv4.ip icmpModule "\"CampusNetwork.adminHost3.ipv4.icmp\""
par CampusNetwork.adminHost3.ipv4.ip crcMode "\"declared\""
attr enum declared,computed
par CampusNetwork.adminHost3.ipv4.ip timeToLive 32
par CampusNetwork.adminHost3.ipv4.ip multicastTimeToLive 32
par CampusNetwork.adminHost3.ipv4.ip fragmentTimeout 60s
attr unit s
par CampusNetwork.adminHost3.ipv4.ip limitedBroadcast false
par CampusNetwork.adminHost3.ipv4.ip directBroadcastInterfaces "\"\""
scalar CampusNetwork.adminHost3.ipv4.ip packetDropAddressResolutionFailed:count 0
attr interpolationmode none
attr recordingmode count
attr source packetDropReasonIsAddressResolutionFailed(packetDropped)
attr title "packet drop: address resolution failed, count"
scalar CampusNetwork.adminHost3.ipv4.ip packetDropAddressResolutionFailed:sum(packetBytes) 0
attr interpolationmode none
attr recordingmode sum(packetBytes)
attr source packetDropReasonIsAddressResolutionFailed(packetDropped)
attr title "packet drop: address resolution failed, sum(packetBytes)"
scalar CampusNetwork.adminHost3.ipv4.ip packetDropHopLimitReached:count 0
attr interpolationmode none
attr recordingmode count
attr source packetDropReasonIsHopLimitReached(packetDropped)
attr title "packet drop: hop limit reached, count"
scalar CampusNetwork.adminHost3.ipv4.ip packetDropHopLimitReached:sum(packetBytes) 0
attr interpolationmode none
attr recordingmode sum(packetBytes)
attr source packetDropReasonIsHopLimitReached(packetDropped)
attr title "packet drop: hop limit reached, sum(packetBytes)"
scalar CampusNetwork.adminHost3.ipv4.ip packetDropForwardingDisabled:count 0
attr interpolationmode none
attr recordingmode count
attr source packetDropReasonIsForwardingDisabled(packetDropped)
attr title "packet drop: forwarding disabled, count"
scalar CampusNetwork.adminHost3.ipv4.ip packetDropForwardingDisabled:sum(packetBytes) 0
attr interpolationmode none
attr recordingmode sum(packetBytes)
attr source packetDropReasonIsForwardingDisabled(packetDropped)
attr title "packet drop: forwarding disabled, sum(packetBytes)"
scalar CampusNetwork.adminHost3.ipv4.ip packetDropNoInterfaceFound:count 0
attr interpolationmode none
attr recordingmode count
attr source packetDropReasonIsNoInterfaceFound(packetDropped)
attr title "packet drop: no interface found, count"
scalar CampusNetwork.adminHost3.ipv4.ip packetDropNoInterfaceFound:sum(packetBytes) 0
attr interpolationmode none
attr recordingmode sum(packetBytes)
attr source packetDropReasonIsNoInterfaceFound(packetDropped)
attr title "packet drop: no interface found, sum(packetBytes)"
scalar CampusNetwork.adminHost3.ipv4.ip packetDropNoRouteFound:count 0
attr interpolationmode none
attr recordingmode count
attr source packetDropReasonIsNoRouteFound(packetDropped)
attr title "packet drop: no route found, count"
scalar CampusNetwork.adminHost3.ipv4.ip packetDropNoRouteFound:sum(packetBytes) 0
attr interpolationmode none
attr recordingmode sum(packetBytes)
attr source packetDropReasonIsNoRouteFound(packetDropped)
attr title "packet drop: no route found, sum(packetBytes)"
scalar CampusNetwork.adminHost3.ipv4.ip packetDropUndefined:count 0
attr interpolationmode none
attr recordingmode count
attr source packetDropReasonIsUndefined(packetDropped)
attr title "packet drop: undefined, count"
scalar CampusNetwork.adminHost3.ipv4.ip packetDropUndefined:sum(packetBytes) 0
attr interpolationmode none
attr recordingmode sum(packetBytes)
attr source packetDropReasonIsUndefined(packetDropped)
attr title "packet drop: undefined, sum(packetBytes)"
par CampusNetwork.adminHost3.ipv4.arp typename "\"inet.networklayer.arp.ipv4.Arp\""
par CampusNetwork.adminHost3.ipv4.arp interfaceTableModule "\"CampusNetwork.adminHost3.interfaceTable\""
par CampusNetwork.adminHost3.ipv4.arp routingTableModule "\"CampusNetwork.adminHost3.ipv4.routingTable\""
par CampusNetwork.adminHost3.ipv4.arp retryTimeout 1s
attr unit s
par CampusNetwork.adminHost3.ipv4.arp retryCount 3
par CampusNetwork.adminHost3.ipv4.arp cacheTimeout 120s
attr unit s
par CampusNetwork.adminHost3.ipv4.arp proxyArpInterfaces "\"\""
scalar CampusNetwork.adminHost3.ipv4.arp arpReplySent:count 0
attr recordingmode count
attr source arpReplySent
attr title "ARP replies sent, count"
scalar CampusNetwork.adminHost3.ipv4.arp arpReplySent:sum(packetBytes) 0
attr recordingmode sum(packetBytes)
attr source arpReplySent
attr title "ARP replies sent, sum(packetBytes)"
scalar CampusNetwork.adminHost3.ipv4.arp arpRequestSent:count 1
attr recordingmode count
attr source arpRequestSent
attr title "ARP request sent, count"
scalar CampusNetwork.adminHost3.ipv4.arp arpRequestSent:sum(packetBytes) 28
attr recordingmode sum(packetBytes)
attr source arpRequestSent
attr title "ARP request sent, sum(packetBytes)"
scalar CampusNetwork.adminHost3.ipv4.arp arpResolutionFailed:count 0
attr recordingmode count
attr title "ARP failed resolutions, count"
scalar CampusNetwork.adminHost3.ipv4.arp arpResolutionCompleted:count 1
attr recordingmode count
attr title "ARP completed resolutions, count"
scalar CampusNetwork.adminHost3.ipv4.arp arpResolutionInitiated:count 1
attr recordingmode count
attr title "ARP initiated resolutions, count"
par CampusNetwork.adminHost3.ipv4.lp typename "\"inet.common.MessageDispatcher\""
par CampusNetwork.adminHost3.ipv4.lp displayStringTextFormat "\"processed %p pk (%l)\""
par CampusNetwork.adminHost3.ipv4.lp forwardServiceRegistration true
par CampusNetwork.adminHost3.ipv4.lp forwardProtocolRegistration true
par CampusNetwork.adminHost3.ipv4 typename "\"inet.networklayer.ipv4.Ipv4NetworkLayer\""
par CampusNetwork.adminHost3.ipv4 forwarding false
par CampusNetwork.adminHost3.ipv4 multicastForwarding false
par CampusNetwork.adminHost3.ipv4 interfaceTableModule "\"CampusNetwork.adminHost3.interfaceTable\""
par CampusNetwork.adminHost3.ipv4 displayStringTextFormat "\"%i\""
par CampusNetwork.adminHost3.nl typename "\"inet.common.MessageDispatcher\""
par CampusNetwork.adminHost3.nl displayStringTextFormat "\"processed %p pk (%l)\""
par CampusNetwork.adminHost3.nl forwardServiceRegistration true
par CampusNetwork.adminHost3.nl forwardProtocolRegistration true
par CampusNetwork.adminHost3.udp typename "\"inet.transportlayer.udp.Udp\""
par CampusNetwork.adminHost3.udp interfaceTableModule "\"CampusNetwork.adminHost3.interfaceTable\""
par CampusNetwork.adminHost3.udp icmpModule "\"^.ipv4.icmp\""
par CampusNetwork.adminHost3.udp icmpv6Module "\"^.ipv6.icmpv6\""
par CampusNetwork.adminHost3.udp crcMode "\"declared\""
attr enum disabled,declared,computed
par CampusNetwork.adminHost3.udp defaultMulticastLoop true
scalar CampusNetwork.adminHost3.udp packetReceived:count 0
attr interpolationmode none
attr recordingmode count
attr source packetReceived
attr title "packets received, count"
scalar CampusNetwork.adminHost3.udp packetReceived:sum(packetBytes) 0
attr interpolationmode none
attr recordingmode sum(packetBytes)
attr source packetReceived
attr title "packets received, sum(packetBytes)"
scalar CampusNetwork.adminHost3.udp packetSent:count 24
attr interpolationmode none
attr recordingmode count
attr source packetSent
attr title "packets sent, count"
scalar CampusNetwork.adminHost3.udp packetSent:sum(packetBytes) 12480
attr interpolationmode none
attr recordingmode sum(packetBytes)
attr source packetSent
attr title "packets sent, sum(packetBytes)"
scalar CampusNetwork.adminHost3.udp passedUpPk:count 0
attr interpolationmode none
attr recordingmode count
attr source packetSentToUpper
attr title "packets passed up, count"
scalar CampusNetwork.adminHost3.udp droppedPkWrongPort:count 0
attr interpolationmode none
attr recordingmode count
attr source packetDropReasonIsNoPortFound(packetDropped)
attr title "packets dropped (wrong port), count"
scalar CampusNetwork.adminHost3.udp droppedPkBadChecksum:count 0
attr interpolationmode none
attr recordingmode count
attr source packetDropReasonIsIncorrectlyReceived(packetDropped)
attr title "packets dropped (checksum error), count"
par CampusNetwork.adminHost3.tcp typename "\"inet.transportlayer.tcp.Tcp\""
par CampusNetwork.adminHost3.tcp crcMode "\"declared\""
attr enum declared,computed
par CampusNetwork.adminHost3.tcp advertisedWindow 7504
par CampusNetwork.adminHost3.tcp delayedAcksEnabled false
par CampusNetwork.adminHost3.tcp nagleEnabled true
par CampusNetwork.adminHost3.tcp limitedTransmitEnabled false
par CampusNetwork.adminHost3.tcp increasedIWEnabled false
par CampusNetwork.adminHost3.tcp sackSupport false
par CampusNetwork.adminHost3.tcp windowScalingSupport false
par CampusNetwork.adminHost3.tcp windowScalingFactor -1
par CampusNetwork.adminHost3.tcp timestampSupport false
par CampusNetwork.adminHost3.tcp mss 536
par CampusNetwork.adminHost3.tcp msl 120s
attr unit s
par CampusNetwork.adminHost3.tcp tcpAlgorithmClass "\"TcpReno\""
par CampusNetwork.adminHost3.tcp useDataNotification false
par CampusNetwork.adminHost3.tcp dupthresh 3
par CampusNetwork.adminHost3.tcp initialSsthresh 4294967295
par CampusNetwork.adminHost3.tcp stopOperationExtraTime 0s
attr unit s
par CampusNetwork.adminHost3.tcp stopOperationTimeout 2s
attr unit s
par CampusNetwork.adminHost3.tcp ecnWillingness false
par CampusNetwork.adminHost3.tcp dctcpGamma 0.0625
par CampusNetwork.adminHost3.tn typename "\"inet.common.MessageDispatcher\""
par CampusNetwork.adminHost3.tn displayStringTextFormat "\"processed %p pk (%l)\""
par CampusNetwork.adminHost3.tn forwardServiceRegistration true
par CampusNetwork.adminHost3.tn forwardProtocolRegistration true
par CampusNetwork.adminHost3.app[0] typename "\"TrafficGenerator\""
par CampusNetwork.adminHost3.app[0] trafficProfile "\"CBR\""
par CampusNetwork.adminHost3.app[0] packetSize 512
par CampusNetwork.adminHost3.app[0] sendInterval 0.05s
attr unit s
par CampusNetwork.adminHost3.app[0] burstSize 10
par CampusNetwork.adminHost3.app[0] burstGap 1s
attr unit s
par CampusNetwork.adminHost3.app[0] destAddress "\"10.0.6.1\""
par CampusNetwork.adminHost3.app[0] startTime 1s
attr unit s
par CampusNetwork.adminHost3.app[0] stopTime 175s
attr unit s
par CampusNetwork.adminHost3.app[0] destPort 1234
par CampusNetwork.adminHost3.app[0] localPort -1
par CampusNetwork.adminHost3.at typename "\"inet.common.MessageDispatcher\""
par CampusNetwork.adminHost3.at displayStringTextFormat "\"processed %p pk (%l)\""
par CampusNetwork.adminHost3.at forwardServiceRegistration true
par CampusNetwork.adminHost3.at forwardProtocolRegistration true
par CampusNetwork.adminHost3 typename "\"inet.node.inet.StandardHost\""
par CampusNetwork.adminHost3 hasStatus false
par CampusNetwork.adminHost3 osgModel "\"\""
par CampusNetwork.adminHost3 osgModelColor "\"\""
par CampusNetwork.adminHost3 canvasImage "\"\""
par CampusNetwork.adminHost3 canvasImageColor "\"\""
par CampusNetwork.adminHost3 recordPcap false
par CampusNetwork.adminHost3 numPcapRecorders 0
par CampusNetwork.adminHost3 numLoInterfaces 1
par CampusNetwork.adminHost3 numWlanInterfaces 0
par CampusNetwork.adminHost3 numEthInterfaces 1
par CampusNetwork.adminHost3 numPppInterfaces 0
par CampusNetwork.adminHost3 numTunInterfaces 0
par CampusNetwork.adminHost3 numVirtInterfaces 0
par CampusNetwork.adminHost3 fcsMode "\"declared\""
attr enum declared,computed
par CampusNetwork.adminHost3 hasIpv4 true
par CampusNetwork.adminHost3 hasIpv6 false
par CampusNetwork.adminHost3 hasGn false
par CampusNetwork.adminHost3 forwarding false
par CampusNetwork.adminHost3 multicastForwarding false
par CampusNetwork.adminHost3 hasUdp true
par CampusNetwork.adminHost3 hasTcp true
par CampusNetwork.adminHost3 hasSctp false
par CampusNetwork.adminHost3 numApps 1
par CampusNetwork typename "\"CampusNetwork\""

